Geom Title=Imported Geom 01
Version=Version 3.0.1  Mar 2001
Viewing Rectangle= 0 , 1 , 1 , 0 

River Reach=Aucilla         ,Main            
Reach XY= 2 
              .5             .95              .5             .05
Rch Text X Y=0.5,0.725
Reverse River Text= 0 

Type RM Length L Ch R = 1 ,57.449  ,2675,2880,1060
Node Last Edited Time=7/18/2002 11:32:49 AM 
#Sta/Elev= 87 
    2215    91.7    2249    89.9    2266    88.5    2277      90    2287      90
    2296      90    2318      88    2396    87.7    2441      86    2496      85
    2666      85    2809      85    2938      85    3079      85    3253    84.4
    3440    84.4    3573      85    3709    84.5    3913    84.5    4014    84.2
    4191    84.2    4270      85    4325    86.2    4379    86.2    4391    86.2
    4410    86.2    4454      84    4560      84    4687      84    4804      84
    4842    85.9    4859    85.9    4867    85.9    4901    83.9    5001    83.9
    5088    82.9    5224    82.9    5414      83    5640      83    5770      83
    5839      83    5902    81.6    5927    81.6    5933    78.7    5943      78
    5953    77.9    5963    77.8    5973    77.7    5978    77.7    5983    77.7
    6003    77.4    6023    76.7    6043      77    6063    77.4    6083    76.4
    6103    75.7    6123    74.1    6143    76.4    6163    76.9    6183    77.3
    6203      77    6223    77.1    6228    77.1    6233    77.3    6243      77
    6253    77.2    6263    77.3    6273    77.4    6283    77.5    6293    77.6
    6303    77.5    6313    77.5    6323    78.1    6333    78.1    6343    78.5
    6352    81.6    6373    81.6    6384    81.7    6531    81.7    6691    81.9
    6817    82.1    6992      85    7129      87    7275    90.6    7423    94.4
    7623    98.1    7874   108.8
#Mann= 3 , 0 , 0 
    2215     .12       0    5902     .08       0    6163     .12       0
#XS Ineff= 2 , 0 
            5902      93    6163            86.5
Permanent Ineff=
       F       F
Bank Sta=5902,6163
XS Rating Curve= 0 
Exp/Cntr=.3,.1

Type RM Length L Ch R = 1 ,56.903  ,2200,3235,3050
Node Last Edited Time=7/18/2002 11:32:49 AM 
#Sta/Elev= 66 
    4795    95.5    4824    94.5    4893    93.4    4930    89.9    4984      89
    5023    85.9    5128    83.8    5211    82.6    5284    81.9    5300    80.4
    5310      80    5320    79.5    5330    78.5    5340    77.3    5350    75.1
    5360    73.8    5370    72.5    5380    71.7    5390      71    5400    70.6
    5410    70.9    5420    71.4    5430    72.2    5440    73.2    5450    74.2
    5460    75.9    5470      77    5480    78.6    5483    78.7    5500    79.6
    5528    81.9    5663    81.9    5836    81.9    5940    81.9    5967    81.5
    6033    81.5    6054    81.5    6090    81.5    6112    81.5    6190    81.7
    6311    81.7    6422    81.7    6512    81.7    6574    81.7    6664    81.7
    6822    81.7    6988    81.7    7117    81.7    7239    81.6    7424    81.6
    7591    81.6    7681    81.6    7812    81.6    7999    81.6    8102    81.6
    8167    81.6    8179    81.6    8396    81.5    8627    81.8    8692    82.3
    8865    83.4    8998    85.7    9157    86.6    9328    90.3    9525    94.8
    9701    99.4
#Mann= 3 , 0 , 0 
    4795     .12       0    5284     .08       0    5528     .12       0
Bank Sta=5284,5528
XS Rating Curve= 0 
Exp/Cntr=.3,.1

Type RM Length L Ch R = 1 ,56.291  ,1200,1156,780
Node Last Edited Time=7/18/2002 11:32:49 AM 
#Sta/Elev= 56 
    3355    99.4    3372    99.4    3377    97.4    3393      98    3467      94
    3566    92.5    3677      91    3740    89.9    3797    87.7    3835    87.4
    3856    85.9    3995    83.4    4066    83.4    4113      82    4171    81.5
    4234    81.6    4433    81.6    4500    81.6    4606    81.6    4735    81.6
    4949    81.6    5201    81.6    5432    81.6    5615    81.6    5779    81.6
    5890    81.6    5931    81.6    5943    81.6    5966    77.5    6000    70.7
    6037    77.5    6133    81.7    6238    81.6    6321    81.6    6374    81.6
    6440    81.6    6484    81.6    6513    81.6    6691    81.8    6908    81.8
    7183    81.8    7373    81.8    7585    81.8    7698    81.8    7826    81.8
    7879    82.2    7977    84.5    8049    84.6    8121    86.6    8162    87.4
    8250    90.2    8326    92.9    8352    94.1    8411      96    8452    98.3
    8480    99.6
#Mann= 3 , 0 , 0 
    3355     .12       0    5943     .08       0    6133     .12       0
Bank Sta=5943,6133
XS Rating Curve= 0 
Exp/Cntr=.3,.1

Type RM Length L Ch R = 1 ,56.072  ,780,1035,1575
Node Last Edited Time=7/18/2002 11:32:49 AM 
#Sta/Elev= 61 
    3609   105.6    3646     106    3701     104    3752   100.4    3791    94.7
    3823    92.9    3845    93.2    3871    90.7    3903    90.8    3969    88.4
    4047    86.7    4133    84.3    4229    82.5    4315    82.5    4400    82.2
    4435    81.8    4532    81.8    4661    81.8    4882    81.8    5168    81.9
    5408    81.7    5672    81.5    5949    78.2    6000    70.8    6018    78.2
    6055    81.4    6269    81.5    6386    81.7    6518    81.7    6693    81.7
    6841    81.7    6941    81.7    6993    81.8    7021    82.2    7054    82.2
    7093    82.2    7140    82.2    7195    82.2    7239    82.1    7300    81.8
    7390    81.8    7478    81.8    7597    81.8    7679    81.8    7779    81.8
    7822    81.8    7956    83.6    8061    83.6    8170    83.7    8295    83.5
    8397    82.9    8507      85    8564    86.4    8660    87.3    8722    89.8
    8769    90.8    8808    93.1    8861    98.1    8940   100.7    9007   103.1
    9067   106.8
#Mann= 3 , 0 , 0 
    3609     .12       0    5672     .08       0    6055     .12       0
Bank Sta=5672,6055
XS Rating Curve= 0 
Exp/Cntr=.3,.1

Type RM Length L Ch R = 1 ,55.876  ,1900,2040,1750
Node Last Edited Time=7/18/2002 11:32:49 AM 
#Sta/Elev= 61 
    3458   124.3    3521   120.7    3593   115.1    3664   110.1    3736     106
    3790   102.9    3829    98.9    3846    99.7    3869    98.8    3908    98.3
    3958    95.4    4049      93    4140    90.2    4217    87.2    4301    83.8
    4473    82.1    4588    81.9    4770    81.8    5014    81.7    5307    81.8
    5608    81.6    5885    78.2    6000    70.9    6170    78.2    6370    82.1
    6415    81.8    6456    81.5    6661    81.5    6829    81.4    6992    81.6
    7112    81.6    7254    81.6    7407    81.6    7524    81.5    7665    81.5
    7809    81.5    7895    81.5    7938    81.5    7956    81.8    8014    82.9
    8091    82.9    8148    82.3    8183    81.7    8237    81.5    8276    81.5
    8309    81.8    8371    82.9    8424    82.9    8453    81.7    8523    81.4
    8594    81.5    8623    81.5    8645    81.8    8693      82    8725    85.9
    8786    87.3    8847    89.9    8938      94    8997      94    9072    95.1
    9104    96.2
#Mann= 3 , 0 , 0 
    3458     .12       0    5608     .08       0    6370     .12       0
Bank Sta=5608,6370
XS Rating Curve= 0 
Exp/Cntr=.3,.1

Type RM Length L Ch R = 1 ,55.489  ,2330,2680,3050
Node Last Edited Time=7/18/2002 11:32:49 AM 
#Sta/Elev= 50 
    3354   117.3    3394   114.5    3448   109.6    3504   104.2    3560    99.1
    3595    95.7    3623    95.4    3652    93.2    3716    90.9    3769    88.7
    3826    84.9    3890    83.2    3956      85    4031      84    4099    81.7
    4214      82    4298    82.1    4359    81.9    4530    81.8    4760    81.6
    5020    81.6    5278    81.6    5530    81.5    5810    81.3    5935    81.6
    5980      80    6000      71    6022      80    6063    81.6    6203    81.6
    6401    81.6    6567    81.6    6739    81.5    6907    81.5    7067    81.5
    7209    81.5    7299    81.5    7432    81.4    7496    81.4    7676    81.4
    7888    81.4    7971    81.5    8026    81.7    8078    82.3    8124    85.7
    8200    88.3    8360    93.2    8416    93.8    8503    95.4    8564    98.1
#Mann= 3 , 0 , 0 
    3354     .12       0    5935     .08       0    6063     .12       0
Bank Sta=5935,6063
XS Rating Curve= 0 
Exp/Cntr=.3,.1

Type RM Length L Ch R = 1 ,54.982  ,2790,2820,2950
Node Last Edited Time=7/18/2002 11:32:49 AM 
#Sta/Elev= 65 
    3629   121.6    3671   119.4    3731     115    3775     109    3822   103.9
    3869      99    3930    96.2    3987    93.3    4053    91.5    4143    88.3
    4197    84.8    4247    82.8    4310    82.4    4402    81.9    4475    81.1
    4601      81    4883    80.9    5095    80.8    5330    80.8    5504    80.8
    5789    80.8    5862    80.8    5866    80.6    5955    80.6    5959    80.8
    5985    75.3    6000    71.1    6018    75.3    6061    80.9    6072    80.8
    6199    80.8    6268    80.9    6443    80.9    6600      81    6605    81.6
    6749      81    6771    81.1    6872      81    6993    81.1    7033      81
    7181    81.1    7208      81    7259    81.9    7265    81.9    7316    82.7
    7369      84    7435    84.4    7518    85.2    7572    84.7    7621      86
    7627    85.9    7695    86.8    7721    86.9    7751      88    7770    87.9
    7821    88.8    7858    90.3    7869      90    7920      92    7925    92.6
    7981    93.9    7998    94.6    8032      96    8036      96    8037    96.4
#Mann= 3 , 0 , 0 
    3629     .12       0    5959     .08       0    6061     .12       0
Bank Sta=5959,6061
XS Rating Curve= 0 
Exp/Cntr=.3,.1

Type RM Length L Ch R = 1 ,54.448  ,1985,2000,2320
Node Last Edited Time=7/18/2002 11:32:49 AM 
#Sta/Elev= 38 
    3775   100.7    3846   100.7    4009    98.6    4052    96.1    4133    94.6
    4200    91.8    4293    89.4    4376      88    4477    83.9    4521    81.3
    4559    79.9    4602    79.4    4687    79.4    4824    79.4    4937    79.4
    5086    79.4    5295    79.2    5494    79.2    5622    79.2    5796    79.2
    5890    79.2    5958      78    6000    70.9    6048      78    6085    79.4
    6224    79.4    6315    79.4    6430    79.3    6501    79.3    6597    79.3
    6715    79.3    6778    79.9    6835    83.9    6879    87.9    6916    91.9
    6968    93.7    7000    95.9    7011    96.5
#Mann= 3 , 0 , 0 
    3775     .12       0    5890     .08       0    6085     .12       0
Bank Sta=5890,6085
XS Rating Curve= 0 
Exp/Cntr=.3,.1

Type RM Length L Ch R = 1 ,54.069  ,2150,1690,1245
Node Last Edited Time=7/18/2002 11:32:49 AM 
#Sta/Elev= 39 
    3706    88.2    3773    86.4    3788    83.9    3836    82.6    3882    79.9
    3967    79.2    4110    79.2    4286    79.2    4376    79.2    4459    79.2
    4589    79.2    4796    79.6    4981    79.6    5116    79.6    5296    79.6
    5467    79.6    5623    79.6    5771    79.6    5901    78.3    6000      71
    6027    78.1    6064    79.2    6157    79.2    6268    79.2    6366    79.2
    6435    79.2    6520    79.5    6725    79.5    6816    79.5    6922    79.5
    6979    79.5    7149    79.5    7376    79.5    7469    79.5    7613    79.5
    7694    79.9    7774    80.4    7849    80.4    7888    87.8
#Mann= 3 , 0 , 0 
    3706     .12       0    5771     .08       0    6064     .12       0
Bank Sta=5771,6064
XS Rating Curve= 0 
Exp/Cntr=.3,.1

Type RM Length L Ch R = 1 ,53.749  ,2680,2440,2365
Node Last Edited Time=7/18/2002 11:32:49 AM 
#Sta/Elev= 50 
    3174    85.2    3204    84.5    3217      84    3285    82.7    3345    80.5
    3363    79.9    3433    79.7    3531    79.7    3661    79.7    3715    79.7
    3786    79.7    3960    79.7    4056    79.8    4153    79.8    4243    79.8
    4322    79.7    4505    79.7    4630    79.7    4787    79.7    4891    79.7
    5019    79.7    5098    79.7    5295    79.7    5420    79.7    5520    79.7
    5683    79.7    5778    79.7    5877    79.3    5945    79.3    5973      78
    6000    71.1    6032      78    6044    79.4    6206    79.4    6294    79.4
    6394    79.4    6472    79.4    6518    79.4    6552    79.7    6757    79.7
    6903    79.7    7056    79.7    7127    79.6    7175      80    7304    81.4
    7389    81.4    7453    81.4    7487      84    7562      85    7644    88.5
#Mann= 3 , 0 , 0 
    3174     .12       0    5945     .08       0    6044     .12       0
Bank Sta=5945,6044
XS Rating Curve= 0 
Exp/Cntr=.3,.1

Type RM Length L Ch R = 1 ,53.287  ,3020,3660,4130
Node Last Edited Time=7/18/2002 11:32:49 AM 
#Sta/Elev= 64 
    2580    84.9    2622    84.9    2643    84.6    2650    84.8    2671    84.8
    2746    84.4    2931    83.5    3101    83.5    3259    83.5    3432    83.5
    3498    83.9    3558    84.4    3605    84.4    3616    84.4    3627    84.4
    3696    83.8    3807    83.8    3875    83.9    3979      83    4088    82.7
    4210    82.7    4365    83.9    4411    84.2    4440    83.5    4583    83.3
    4716    83.3    4802    79.7    4887    77.8    5066    77.6    5246    77.6
    5373    77.6    5519    77.6    5614    77.6    5794    77.7    5833    77.9
    5898    77.9    5958    77.9    5974      75    6000    71.2    6058      75
    6142      78    6268      78    6369      78    6447      78    6643    80.2
    6772    81.7    6921    81.7    7131    81.7    7332    81.7    7494    81.7
    7583    81.7    7618    81.7    7656    82.2    7716    84.2    7771    86.1
    7814    88.1    7853    90.3    7892      92    7951    94.1    7987    96.1
    8034    99.9    8085   104.4    8154   108.3    8236   114.2
#Mann= 3 , 0 , 0 
    2580     .12       0    5958     .08       0    6142     .12       0
Bank Sta=5958,6142
XS Rating Curve= 0 
Exp/Cntr=.3,.1

Type RM Length L Ch R = 1 ,52.594  ,965,1880,1650
Node Last Edited Time=7/18/2002 11:32:49 AM 
#Sta/Elev= 34 
    4558    83.9    4665    82.5    4825      84    4989    84.5    5153    86.2
    5312    86.5    5458    85.6    5604    84.3    5715    79.6    5794    77.8
    5921      77    6000    71.5    6112      77    6169    77.8    6371    77.8
    6541    77.8    6665    77.9    6924    77.9    7178    77.9    7246    77.7
    7306    77.7    7334    78.1    7395      82    7494      83    7672      83
    7814      83    7971      83    8126      83    8265      83    8396      83
    8447      86    8495    86.5    8531      90    8558    91.5
#Mann= 3 , 0 , 0 
    4558     .12       0    5794     .08       0    6169     .12       0
Bank Sta=5794,6169
XS Rating Curve= 0 
Exp/Cntr=.3,.1

Type RM Length L Ch R = 1 ,52.238  ,3325,1900,1160
Node Last Edited Time=7/18/2002 11:32:49 AM 
#Sta/Elev= 16 
    4814    85.6    4927    85.2    5095      82    5242    78.1    5360    77.5
    5537    77.5    5779    77.5    5932      77    6000    71.2    6078      77
    6178    77.6    6270    78.4    6396    81.3    6542    87.4    6658    91.1
    6800    94.6
#Mann= 3 , 0 , 0 
    4814     .12       0    5779     .08       0    6178     .12       0
Bank Sta=5779,6178
XS Rating Curve= 0 
Exp/Cntr=.3,.1

Type RM Length L Ch R = 1 ,51.878  ,1555,1675,1940
Node Last Edited Time=7/18/2002 11:32:49 AM 
#Sta/Elev= 34 
    3340    85.7    3402    87.3    3490    87.5    3585    87.5    3653    87.8
    3732    86.1    3796    85.3    3899    85.2    4006    85.2    4097    87.4
    4173    87.7    4248    88.4    4330    87.3    4457    84.6    4557    82.6
    4673    79.9    4789    77.7    4959    77.6    5071    77.5    5266    77.4
    5452    77.3    5583    77.2    5768    76.6    5896      76    6000    70.9
    6011    76.6    6111      77    6323      77    6548    77.4    6700    77.6
    6756    80.1    6905    84.2    7033    88.3    7158    93.3
#Mann= 3 , 0 , 0 
    3340     .12       0    5583     .08       0    6111     .12       0
Bank Sta=5583,6111
XS Rating Curve= 0 
Exp/Cntr=.3,.1

Type RM Length L Ch R = 1 ,51.56   ,1890,1860,1455
Node Last Edited Time=7/18/2002 11:32:49 AM 
#Sta/Elev= 53 
    3205      83    3308    83.1    3416    83.1    3485    83.7    3559    85.6
    3609    83.7    3665      84    3717    85.9    3787    85.6    3855    86.2
    3921    85.6    4002      84    4062    82.1    4088    81.5    4156    81.5
    4208    82.5    4298      83    4368    82.2    4447    83.3    4516    83.4
    4600    82.8    4674    81.7    4752      81    4810    79.8    4920    77.8
    5077    77.8    5285    77.7    5551    77.5    5702    77.3    5876    76.5
    5976      76    6000    70.5    6191      76    6294    76.7    6506    77.2
    6682    77.7    6818      78    6919    78.9    7072    78.9    7137    77.9
    7243    77.3    7422    77.3    7488    77.6    7537    78.1    7607    81.5
    7669      82    7772    83.7    7849    83.7    7980    83.7    8152    82.8
    8280    83.1    8362    82.4    8402    82.6
#Mann= 3 , 0 , 0 
    3205     .12       0    5702     .08       0    6294     .12       0
Bank Sta=5702,6294
XS Rating Curve= 0 
Exp/Cntr=.3,.1

Type RM Length L Ch R = 1 ,51.208  ,1500,2250,3300
Node Last Edited Time=7/18/2002 11:32:49 AM 
#Sta/Elev= 48 
    3557    77.9    3608    78.1    3719    80.9    3836    82.6    3959    82.8
    4067    77.9    4146    77.7    4341    77.7    4612    77.7    4787    78.6
    4909    79.5    5002    78.5    5174    78.5    5322    78.1    5434    78.1
    5472    78.1    5527      78    5606    77.5    5752    77.5    5841    77.5
    5917    77.5    5961    77.5    5986    76.2    6000      70    6030    77.5
    6118    77.5    6174    77.5    6315    77.5    6482    77.5    6637    77.5
    6910    77.5    7123    77.7    7278    77.7    7355    77.7    7418      78
    7518      81    7644      81    7774      81    7867    81.1    7950    81.1
    8021    81.1    8065    81.1    8137    80.7    8331    80.3    8476    80.8
    8591    80.8    8730    81.7    8768    81.7
#Mann= 3 , 0 , 0 
    3557     .12       0    5961     .08       0    6030     .12       0
Bank Sta=5961,6030
XS Rating Curve= 0 
Exp/Cntr=.3,.1

Type RM Length L Ch R = 1 ,50.782  ,1170,1860,2900
Node Last Edited Time=7/18/2002 11:32:49 AM 
#Sta/Elev= 52 
    2874    97.3    2936    95.5    2990      94    3056      92    3081      90
    3122    88.9    3154      88    3230    86.8    3290      86    3382    85.1
    3447    83.9    3472      82    3541    81.1    3595    79.9    3698    78.9
    3764    77.9    3904    77.4    4025    77.4    4134    77.1    4235    77.1
    4566    77.1    4744    77.1    4933    76.9    5037    76.8    5234    76.7
    5463    76.5    5692    76.4    5877    76.3    5935      75    6000    69.5
    6171    76.5    6341    76.5    6572    76.7    6743    77.1    7013    77.2
    7245    77.4    7314    78.1    7386    79.5    7457    80.4    7540    80.2
    7625    80.5    7699    81.3    7795    81.6    7886    81.1    7992    80.7
    8205    78.8    8415    79.6    8627    82.3    8772    82.5    8905    83.2
    9004    84.4    9115    82.6
#Mann= 3 , 0 , 0 
    2874     .12       0    5877     .08       0    6171     .12       0
Bank Sta=5877,6171
XS Rating Curve= 0 
Exp/Cntr=.3,.1

Type RM Length L Ch R = 1 ,50.43   ,2510,1969,1800
Node Last Edited Time=7/18/2002 11:32:49 AM 
#Sta/Elev= 58 
    2541    89.7    2604    89.3    2813      89    2907    88.9    2987    88.4
    3049      88    3355      85    3455    84.1    3557    82.5    3628    80.4
    3689    80.3    3745    79.6    3933    79.1    4107    78.7    4255    79.9
    4333    80.7    4437    82.4    4534    84.8    4622    84.9    4717    83.8
    4780    82.3    4868    82.3    4980    81.5    5080    79.1    5169    81.2
    5257    83.6    5333    84.5    5433    84.4    5532    85.2    5611    83.3
    5721    79.8    5826    75.9    5882    74.8    6000      69    6111    75.9
    6372    75.9    6549    76.1    6713    76.4    6876      77    7127      77
    7395      77    7619      76    7709    75.9    7900    75.9    8153    75.9
    8320    75.9    8381    76.2    8474    76.4    8562    76.8    8670      77
    8781    76.8    8865    76.9    8907      79    8963    80.7    9046    80.7
    9108    78.6    9181    78.8    9237      80
#Mann= 3 , 0 , 0 
    2541     .12       0    5826     .08       0    6111     .12       0
Bank Sta=5826,6111
XS Rating Curve= 0 
Exp/Cntr=.3,.1

Type RM Length L Ch R = 1 ,50.057  ,1130,1495,2650
Node Last Edited Time=7/18/2002 11:32:49 AM 
#Sta/Elev= 53 
    3677    90.4    3731    89.5    3805    87.2    3855    84.7    4033    84.7
    4113    85.2    4168    85.6    4259      86    4335      87    4379    87.3
    4459    87.8    4540    87.9    4621    88.2    4701    88.7    4789    88.6
    4850    87.1    4912    86.3    4977    84.5    5049    83.8    5157    83.7
    5242    83.7    5306    84.8    5364      84    5413    80.7    5447      79
    5501      78    5563    78.5    5616      79    5693    75.9    5802    75.7
    5887      75    5974    73.6    6000    68.5    6094      75    6259    75.7
    6614    75.7    6919    75.7    7232    75.7    7538    75.8    7844    75.9
    7974    76.1    8109      80    8185    81.8    8267    83.6    8321    83.2
    8393    82.7    8465    82.1    8526    81.6    8614    82.9    8683    83.6
    8818    82.9    8927    82.3    9036    81.3
#Mann= 3 , 0 , 0 
    3677     .12       0    5802     .08       0    6259     .12       0
Bank Sta=5802,6259
XS Rating Curve= 0 
Exp/Cntr=.3,.1

Type RM Length L Ch R = 1 ,49.774  ,810,739,1515
Node Last Edited Time=7/18/2002 11:32:49 AM 
#Sta/Elev= 44 
    3954    86.8    4078    86.1    4179      85    4259    83.1    4331    84.1
    4427      82    4484    81.5    4528    78.6    4589    77.6    4706    78.2
    4788    78.9    4864    77.4    4931    77.8    4989    80.6    5066    82.9
    5158    81.6    5258    80.4    5333    78.3    5434    75.8    5561    75.8
    5747    75.7    5919      75    5983    73.5    6000    68.1    6103      75
    6321    75.7    6502    75.9    6729    75.8    6966    75.7    7169    75.6
    7353    75.4    7496    75.1    7647    75.2    7824    75.4    7977    75.4
    8086    75.5    8275    75.5    8343    76.1    8413    76.7    8440    78.1
    8480    78.4    8502    80.8    8521    81.9    8540    81.9
#Mann= 3 , 0 , 0 
    3954     .12       0    5747     .08       0    6321     .12       0
Bank Sta=5747,6321
XS Rating Curve= 0 
Exp/Cntr=.3,.1

Type RM Length L Ch R = 1 ,49.634  ,490,530,530
Node Last Edited Time=7/18/2002 11:32:49 AM 
#Sta/Elev= 35 
    4810    83.1    4857    84.5    4942    84.5    5028    84.3    5115    83.4
    5169    83.7    5250    83.9    5319    84.6    5377    82.4    5421      78
    5468    75.9    5546    75.8    5667    75.6    5826    75.6    5874      75
    5968      73    6000      68    6021      75    6057    75.6    6194    75.6
    6424    75.4    6526    75.4    6642    75.3    6754    75.4    6899    75.6
    6988      76    7074    76.2    7173    76.5    7287    77.2    7400    79.9
    7511    80.7    7568    80.3    7622      80    7730    78.8    7865    78.8
#Mann= 3 , 0 , 0 
    4810     .12       0    5826     .08       0    6057     .12       0
Bank Sta=5826,6057
XS Rating Curve= 0 
Exp/Cntr=.3,.1

Type RM Length L Ch R = 1 ,49.533  ,1120,1082,1700
Node Last Edited Time=7/18/2002 11:32:49 AM 
#Sta/Elev= 34 
    4794    85.4    4847    85.4    4911    84.5    5009    83.6    5043      87
    5106    84.8    5184    82.6    5277    82.4    5355    82.2    5421      80
    5500      79    5575    78.6    5657    76.1    5767    75.4    5900      75
    6000    67.8    6032    73.5    6050      75    6171    75.5    6326    75.6
    6434    75.9    6486    76.9    6559    78.8    6643      80    6732    80.4
    6818    80.1    6830    79.4    6900    78.1    7134    78.1    7221    78.1
    7370    78.1    7449    78.7    7548      79    7657    79.2
#Mann= 3 , 0 , 0 
    4794     .12       0    5767     .08       0    6171     .12       0
Bank Sta=5767,6171
XS Rating Curve= 0 
Exp/Cntr=.3,.1

Type RM Length L Ch R = 1 ,49.328  ,755,723,850
Node Last Edited Time=7/18/2002 11:32:49 AM 
#Sta/Elev= 45 
    5319    85.5    5379    84.1    5452    82.6    5532    82.3    5606      82
    5665    79.3    5710    76.7    5762    75.6    5899    75.4    5960    74.2
    5970    71.7    5980    69.2    5985    69.4    5990    68.7    6000    67.5
    6005    68.3    6010    69.5    6015    70.7    6020    71.9    6025    71.9
    6030    72.7    6035    72.8    6040    73.3    6096    75.4    6261    75.6
    6381    76.2    6469    80.5    6571    80.4    6651    82.7    6735    83.6
    6837    83.2    6926    83.8    7029    83.2    7140    82.8    7222    84.3
    7298    85.3    7374    85.8    7436    82.9    7492    80.7    7542    78.4
    7644    78.3    7756    78.2    7796    80.3    7844    82.2    7877    82.2
#Mann= 3 , 0 , 0 
    5319     .12       0    5762     .08       0    6381     .12       0
Bank Sta=5762,6381
XS Rating Curve= 0 
Exp/Cntr=.5,.3

Type RM Length L Ch R = 1 ,49.191  ,36,36,36
BEGIN DESCRIPTION:
This is a REPEATED section.
U.S. ROUTE 90
END DESCRIPTION:
Node Last Edited Time=7/22/2002 1:17:14 PM 
#Sta/Elev= 31 
    4795    90.2    4925    87.8    5002    87.4    5067    87.1    5115    84.5
    5146    80.8    5246    79.5  5855.5    79.7  5859.5    79.1  5867.5    74.4
  5875.5    73.6  5898.5    73.4  5921.5    72.9  5944.5    73.1  5967.5    73.2
  5990.5      73  6013.5    72.5  6036.5    72.4  6058.5    73.1  6081.5    72.4
  6090.5    72.9  6096.5      70  6114.5    68.8  6119.5    69.5  6129.5    73.1
  6138.5    76.6  6145.5    79.1    6836      80    6918      84    7476      84
    7706    85.2
#Mann= 3 , 0 , 0 
    4795     .12       0  5855.5     .08       0  6145.5     .12       0
#XS Ineff= 2 , 0 
          5855.5    85.5  6145.5              85
Permanent Ineff=
       F       F
Bank Sta=5855.5,6145.5
XS Rating Curve= 0 
Exp/Cntr=.5,.3

Type RM Length L Ch R = 3 ,49.1875 ,,,
BEGIN DESCRIPTION:
U.S. Route 90

END DESCRIPTION:
Node Last Edited Time=9/3/2002 10:04:52 AM 
Bridge Culvert--1,0,-1,-1, 0 
Deck Dist Width WeirC Skew NumUp NumDn MinLoCord MaxHiCord MaxSubmerge Is_Ogee
1,34,2.8,0, 34, 34, 84.5, , .95, 0, 0,0,,
    4340    4393    4471    4562    4679    4795    4924    5069    5204    5323
    5469  5525.5  5852.5  5852.5  5855.5  5855.5  6145.5  6145.5  6147.5  6147.5
  6452.5    6503    6640    6764    6846    6937    7030    7123    7209    7298
    7401    7515    7644    7706
   102.3   100.7    98.6    95.9      93    90.2    87.6    86.6    86.3    86.2
    85.4   85.32   85.73   88.69 88.6898 88.689888.6701488.67014   88.67   85.87
   85.34      85    85.2      85    84.9    84.7    84.8    84.9    84.6    84.8
    84.5    84.6    84.8    85.2
    68.8    68.8    68.8    68.8    68.8    68.8    68.8    68.8    68.8    68.8
    68.8    68.8    68.8    68.8    68.8   81.66   81.66    68.8    68.8    68.8
    68.8    68.8    68.8    68.8    68.8    68.8    68.8    68.8    68.8    68.8
    68.8    68.8    68.8    68.8
    4340    4393    4471    4562    4679    4795    4924    5069    5204    5323
    5469  5525.5  5852.5  5852.5  5855.5  5855.5  6145.5  6145.5  6147.5  6147.5
  6452.5    6503    6640    6764    6846    6937    7030    7123    7209    7298
    7401    7515    7644    7706
   102.3   100.7    98.6    95.9      93    90.2    87.6    86.6    86.3    86.2
    85.4   85.32   85.73   88.69 88.6898 88.689888.6701488.67014   88.67   85.87
   85.34      85    85.2      85    84.9    84.7    84.8    84.9    84.6    84.8
    84.5    84.6    84.8    85.2
    68.8    68.8    68.8    68.8    68.8    68.8    68.8    68.8    68.8    68.8
    68.8    68.8    68.8    68.8    68.8   81.66   81.66    68.8    68.8    68.8
    68.8    68.8    68.8    68.8    68.8    68.8    68.8    68.8    68.8    68.8
    68.8    68.8    68.8    68.8
Pier Skew, UpSta & Num, DnSta & Num=  ,5876.09, 4 ,5876.09, 4 , 3 , 3 , 0 ,,
     1.5     1.5    1.75    1.75
       0   78.71   78.71   81.66
     1.5     1.5    1.75    1.75
       0   78.71   78.71   81.66
Pier Skew, UpSta & Num, DnSta & Num=  ,5908.92, 4 ,5908.92, 4 , 3 , 3 , 0 ,,
     1.5     1.5    1.75    1.75
       0   78.71   78.71   81.66
     1.5     1.5    1.75    1.75
       0   78.71   78.71   81.66
Pier Skew, UpSta & Num, DnSta & Num=  ,5931.8, 4 ,5931.8, 4 , 3 , 3 , 0 ,,
     1.5     1.5    1.75    1.75
       0   78.71   78.71   81.66
     1.5     1.5    1.75    1.75
       0   78.71   78.71   81.66
Pier Skew, UpSta & Num, DnSta & Num=  ,5954.82, 4 ,5954.82, 4 , 3 , 3 , 0 ,,
     1.5     1.5    1.75    1.75
       0   78.71   78.71   81.66
     1.5     1.5    1.75    1.75
       0   78.71   78.71   81.66
Pier Skew, UpSta & Num, DnSta & Num=  ,5977.66, 4 ,5977.66, 4 , 3 , 3 , 0 ,,
     1.5     1.5    1.75    1.75
       0   78.71   78.71   81.66
     1.5     1.5    1.75    1.75
       0   78.71   78.71   81.66
Pier Skew, UpSta & Num, DnSta & Num=  ,6000.5, 4 ,6000.5, 4 , 3 , 3 , 0 ,,
     1.5     1.5    1.75    1.75
       0   78.71   78.71   81.66
     1.5     1.5    1.75    1.75
       0   78.71   78.71   81.66
Pier Skew, UpSta & Num, DnSta & Num=  ,6023.43, 4 ,6023.43, 4 , 3 , 3 , 0 ,,
     1.5     1.5    1.75    1.75
       0   78.71   78.71   81.66
     1.5     1.5    1.75    1.75
       0   78.71   78.71   81.66
Pier Skew, UpSta & Num, DnSta & Num=  ,6046.4, 4 ,6046.4, 4 , 3 , 3 , 0 ,,
     1.5     1.5    1.75    1.75
       0   78.71   78.71   81.66
     1.5     1.5    1.75    1.75
       0   78.71   78.71   81.66
Pier Skew, UpSta & Num, DnSta & Num=  ,6069.25, 4 ,6069.25, 4 , 3 , 3 , 0 ,,