Geom Title=Imported Geom HSW
Program Version=4.10
Viewing Rectangle= 2127626.95787164 , 2218085.83156656 , 584308.058198291 , 407184.370866499 

River Reach=Aucilla         ,Main            
Reach XY= 2165 
2213608.54958522581326.5799849782213617.44687714581298.082010478
 2213654.6541518  581217.85152792213723.42993289581126.190621972
2213792.16207889581071.7842347322213895.25242388581014.503509387
 2213943.9882188580968.6187586492213969.75129063580911.358046398
 2213989.7814343 580805.40090923 2214004.1357363580696.539578393
2214035.62025338580604.8678457292214061.43122539580556.143861815
2214101.51054156580518.9188706432214164.54322389580495.997984722
2214244.73072755580455.9390097262214290.55970414580418.693021223
2214319.20564422580364.2571064832214350.71115863580269.720222056
2214410.86490972580143.6732300672214445.24607456580060.619262308
2214462.41139455579980.4347113972214488.22663164579877.322384804
2214519.73444264579805.7116356492214565.57621446579728.345976725
2214645.77093597579656.7644269762214725.95942388579570.793142229
2214791.84774356579516.3693665562214854.86270939579496.314944729
2214964.86839488579477.559076726 2215066.8343983579439.053576306
2215127.00028847579396.0539903942215161.34437989579318.731966555
2215164.23741873 579258.570997642215155.61177981579224.183599234
2215112.65189198579158.3418673872215029.58119197579095.333791316
2215006.23511006579084.4420808112214955.10955614579032.264035568
2214912.16016696578926.301977143 2214834.8013978578745.837771147
2214774.68176739578651.3425533182214723.10936397 578602.63661398
2214619.95274614578545.3457180562214522.59959438578510.959631979
2214390.80130155578499.5078832212214227.54375406578490.888805971
2214078.58735906578473.7116749732213869.48574314578419.294460982
2213772.07058364578370.5816318992213682.04484506578298.200214982
2213637.46324131578276.0670571482213548.65206721578218.815859318
2213465.59285013578184.4084478172213340.66134147578132.704154894
2213256.51026306 578072.680980982213202.04514888 578006.82350114
2213159.12495914577926.5949870652213144.78017156577817.781556398
2213144.75294064577728.9424952272213159.09904055577628.739611641
2213179.12491913577476.930203974 2213199.1767163577313.658548892
2213202.05400714577162.5253209772213189.19084388577091.647509977
2213174.11541472576997.0968460592213146.20864639576881.118075401
2213114.00529872576760.7810457352213101.07750306576629.721924648
2213105.37342621576518.0482634752213120.44327797576427.788273394
2213146.20142855576348.3327236472213150.50981888576258.060594484
2213141.89271013576167.8832813952213126.89569288576054.004900232
2213126.84549613575953.0326612292213129.03184347 575841.28354089
2213133.32514197575753.206289232 2213129.0016598575652.265874311
2213118.28645813 575583.537009152213111.82977813575516.910501972
 2213111.8028753575458.9247255622213111.83798023575368.684092388
2213098.93577506575256.9543289842213064.55329789575138.797741145
2212993.66269164574943.322082222 2212942.1103013574820.841356054
2212873.35879838574698.4262465692212789.57681371574567.373030975
2212735.85185555574477.1327258942212697.19707721574374.007604063
2212660.67844947574251.5688725562212624.13357505574148.458186388
2212587.63627271574092.6023269742212561.84039256 574068.95211181
2212531.76564956574053.9311444762212499.52227572574047.431813642
2212445.82061146574038.8960695562212381.37126531574028.153636977
2212338.43270288 574019.508313062212289.00137131573995.880735651
2212248.17500938573963.653437898 2212226.7160628573922.838558897
2212211.69279888573843.3492165652212200.93560255573733.829422474
2212203.09964022573671.5293502212212220.27939589573619.940870732
2212246.01753339573551.2159425622212256.79933597573501.778705478
2212258.91645771573430.8815375572212269.66807663573347.116285145
2212293.30418421 573246.122392642212316.50984646573177.441427648
2212327.66697639573119.4097195572212331.97142972573052.795351475
2212340.58099255572996.9414605652212355.59802289572945.399240807
2212362.04518847572889.5305861382212353.47073056 572831.48673898
2212336.27457072572745.5807428062212319.10104863572625.286363974
2212310.50296871572361.0313150582212314.79561105572311.610810235
 2212334.1430133572275.0977598882212349.13839014572257.882899314
 2212379.2315058572247.1732750682212394.27379856572238.556822479
2212400.71276206572214.9423683882212405.01819964 572186.98507522
2212405.01918389572124.731918901 2212407.1625523 572034.50572139
 2212420.0286683571965.7545465682212454.42328455571873.370544985
2212467.32122463571776.6939010622212473.75854772571536.076272056
2212478.06529763571306.1764694012212458.71855155 571039.83645089
 2212463.0128343570788.4737646432212467.32220888 570674.60522598
2212480.22900721570545.6740534012212482.34612897570474.776557401
2212465.18441789570375.9447340672212443.67199372570272.875714481
2212437.33867306570164.4835428152212449.25859672570025.424109638
2212463.16933005569896.2560608982212508.90545905569711.452952817
2212564.52673888569500.8037678152212606.25795464569369.690512985
2212638.04890156569288.2028150562212665.84182496569212.663924143
2212701.63702896569085.5349133162212777.16640547568872.887372732
2212824.83461721568745.7173514812212854.64853397 568660.25328356
2212892.38664746568519.174825564 2212936.1240928568318.505935565
2212979.80838864568125.762554646 2213017.5747173567903.225270063
2213043.42079422 567734.262353392213065.25244346567511.737864062
2213079.15595897567291.1717041432213087.10344964567108.367935896
2213083.17399555566949.384986147 2213087.1257593566834.111922726
 2213081.1552988566726.8201425672213065.24850647566559.950725645
2213045.37715514 566432.747896062213021.52221596566301.615940481
2212997.71320847566210.1768188922212967.87074848566067.114112899
2212938.11194971565896.2483128912212896.34300439565753.165921897
2212832.77324964565572.3145775652212781.12309048565423.310938567
 2212731.4335573565304.0752846452212669.84312931565188.844872057
2212608.21070664565087.5156783912212427.39053021564765.569143817
2212339.97338222564606.6288449022212268.45088747 564461.57664156
2212242.61498113 564403.90385665 2212226.6766928564326.421071976
2212218.74921522564227.1033572262212202.85882705564095.904144555
2212192.90248214563976.6957215672212188.96384172563849.540792137
2212171.07312948563593.2119084752212155.17946047563384.577483222
2212157.17158248563301.1189887232212167.08002722563209.666087642
2212182.96779072563100.3894033132212196.90444264562983.172446147
2212198.87917621562925.5052386372212186.97532864562859.940409139
2212163.12629497562742.7106567322212141.24084005562631.469737485
2212137.26643856 562563.885226982212145.20539905562498.331880391
2212151.18996714562448.6193813982212169.06329097562388.986954734
2212182.96713455562315.4877578912212182.96877497562214.150690228
2212171.05016364562158.5241610562212137.26250155562059.153296813
2212093.56442621561973.7387694722212039.91886422561876.367245063
2211934.58771005561727.3061914742211888.90833947561653.768280804
2211835.23751505561544.5070163912211805.41867705561451.138764814
2211785.53682706561347.7774229792211771.65594931561160.985145643
2211757.74948105561063.6395398082211767.65858197560964.260145396
2211781.57456464560896.7360022222211799.48561805 560847.04286015
2211833.25950064 560777.458025562211857.08819313560688.050724059
2211867.01730713560632.4501134752211867.04978739560588.733009309
2211855.10132048560552.9220573162211823.28543922560489.355911478
2211803.44853663560433.736272067 2211793.4944883 560376.11073114
2211797.47709188560302.5442772212211815.33762047560236.997164235
 2211843.1617118 560165.48221539 2211867.0120578 560103.87899214
2211870.97727297560056.1638644782211865.02518514 559976.67649065
2211855.08622864559901.1858279712211853.44220306559824.532109901
 2211851.1065778 559772.019419642211829.28903614559728.275740728
2211785.54207638559680.6035919792211684.73027013559603.400334314
2211628.58241655559555.3997741492211590.81280705559505.756172642
2211572.91881397559420.2740601452211576.91585322559328.902851805
2211588.82495013559269.2917505652211628.54074997559171.943520054
2211650.45081113559124.2287204712211664.33496971559100.360001817
2211682.20205997559088.4699337332211710.05863155559074.573636055
2211737.86238173559060.6163148882211767.66087855559024.845060974
2211809.37372163558999.0314643092211839.19649664558983.136811063
2211851.11313947558969.2549490632211876.75055538558940.039456308
2211894.86141156558915.5903582272211924.63169321558899.696033061
2211938.54308271558871.8647238912211942.53257605558836.101015896
2211934.60017721558760.5631092342211928.60150155558726.804646567
 2211914.7245608558695.0048413872211890.87388672558655.271981224
2211861.04815897558593.6703983992211847.17384289558545.956911147
2211853.10493338558496.3044513912211867.03436747558434.694666475
2211904.78691663558331.3585870562211932.61166413558267.769803479
2211948.47580564558239.9519457222212006.10561164558194.247640818
2212057.77217497558140.6375118052212101.49518463558090.936823815
2212137.25823647558063.1320893912212202.61243647558038.089488566
 2212242.6038263558009.4599526382212270.41151346557971.723807648
2212292.25923881557910.1071329712212318.06988272557816.750692397
2212334.01013955557731.2534880642212353.88247514  557641.8809634
2212381.66883689557576.2803728132212413.46306464557534.547188565
2212475.04430631557459.054885477 2212502.8926758 557423.27050823
 2212530.6878958557387.4858028892212558.52740705557321.947220057
2212572.45716922557268.2636003942212575.05230838557251.453266561
2212580.40892497557216.6134412292212582.38431472557159.007913396
2212575.01654731557124.7524044812212570.46471913557103.380728066
2212568.45291214557057.6380373982212568.48375197557053.064883813
2212568.47259714557015.9324121482212570.45750131556980.155580819
2212576.42566521556956.2950642262212584.34920581556916.594356224
2212582.37315989556896.703976065 2212570.4752178556868.880540892
 2212548.5874663556843.0623510632212526.74203755556803.282246888
2212524.19348621556789.9728903172212518.79126605556761.584167555
2212518.78437631556723.8421170562212524.76697588556690.042972058
2212540.66326955556634.421692222 2212572.4476548556578.787617147
2212596.26027122556531.0856128192212604.22482222556485.350139976
2212612.18379581556393.9454671442212612.15918955556296.572302312
2212569.22161138556175.9816642252212516.84638806556053.802774727
2212505.19319613555803.5532752282212528.49629913555628.965369806
2212557.57990238555559.1666248892212526.54223481555458.290186226
2212462.51316339555318.6552948952212381.07861497555208.046592221
2212317.03576405555085.8499862252212235.57300048554963.656989142
2212183.22172722554876.3549983952212095.92564197 554742.53768073
2212014.43531938554631.9906577322211973.69524339554521.415419564
 2211938.8130953 554341.00567539 2211921.3387208554247.904483646
2211886.40407939554137.3689435572211804.95083022553997.677621901
2211653.67324564553863.8553829792211502.35629106553782.408039317
2211362.67874889553712.5646750632211246.34532014553625.257763058
2211083.39977989553538.0030163082211001.90387988553427.397266388
2210891.35620072553241.2335967272210844.78674005553031.723845139
2210839.00328705552973.5172686432210792.44990247552839.673704311
2210699.32410447552723.3202624772210612.02900347552572.007901058
2210524.76933546552368.3819959762210431.63828814552205.446298227
2210462.59229447551988.6944351492210478.17789322551879.558498561
2210501.48887022551734.0532121512210501.45409338551606.072168902
2210478.17986172551495.4946341512210350.18241431551390.735657305
2210158.13653855551303.4717242272209913.74726355551204.516541556
2209828.38883847551185.4604773072209777.17109314551174.026445061
2209622.77901347551076.5315613152209535.49342689550977.597047895
2209506.37865572550832.1055409762209500.54533406550686.647826642
 2209506.3711098550605.1670184732209506.38324888550453.894683227
2209488.91543606550232.7533932332209407.48252805550087.276321977
 2209331.8340573549976.7145352212209320.16708589549842.863424972
2209310.74814147549824.0301293132209238.69119897549679.948396474
2209180.51316571  549546.09006842209122.30429263549377.356481984
2209058.31491931549220.229499638 2208971.0434403549063.129420146
2208878.89270596 548913.355769562208877.92486013548911.782938063
2208773.14882296548743.0427899812208802.27901405548516.116734639
2208866.27855797548388.0769644832208959.37482847548196.089815646
2208959.37581272548192.1062278152208959.39877856548050.611103982
2208941.93719931547812.0321848092208912.82669322 547625.81175673
2208912.85261181547503.563313559 2208912.8289898 547404.66652973
2208912.82210006547224.2498958112208972.76719013547147.228396311
2208994.30290821547119.5585041492209064.10657439547055.517621726
2209133.94797014546962.3931360542209192.16176447546886.751883149
2209192.99870506546885.7059534792209308.55195163546741.320743561
2209355.10796088546624.9331810622209372.52918589546467.802917898
2209394.05112447546349.5554509762209395.82703955546339.796612233
2209360.91930097546246.6412867312209349.24117471546153.580777317
2209342.53088631546036.2867205592209342.54729047545970.802927643
2209424.36635256 545879.162034812209502.90031622545836.582067475
 2209571.6524753545843.1407813882209646.92135364545846.450814143
2209745.16689205545856.2565688042209833.52563922545836.607657984
 2209902.2699243545797.3160699012209980.82586955545712.239468396
2210003.71919647545636.9102227242210000.44590905 545558.35624598
2210000.45148647545463.4230368882209997.19985256545342.311074391
2210000.44787756545204.8412049712210039.75291705545083.771565229
2210041.62036739 545075.04487665 2210059.3778778544992.079819471
2210115.00309463544893.9235197312210160.22675747544842.556824565
2210187.04527338544812.0962555562210262.30398114544746.631163388
2210331.05089089544707.3402314782210406.32731514 544654.98469314
2210458.74158038 544602.597002642210491.55450688544565.896616727
2210514.33726972 544540.414712312210573.27350356544468.377126724
2210622.38823472544396.395643398 2210681.3037993 544288.32400915
2210700.93007238544196.6942711472210720.57012497544095.247623637
2210720.57668664544000.3137583882210714.04946873543895.581684396
2210704.20434405543797.3499254732210766.40107006543594.429071471
2210802.42790088543506.0184871412210864.59050623543456.929346472
2210952.97025073543388.2008093892211038.10754764543322.742935061
2211129.75204939543286.7184008062211244.29545547543237.617449149
2211329.42487839543165.6362938882211355.61380239543103.439239815
2211424.30526605543018.2993182242211486.50527288 542956.16328764
2211565.09501071542929.9284319732211640.38324597  542923.4261484
2211666.57413846542923.420570984 2211715.6639353542910.278208807
2211758.20322031 542874.288123312211807.27890955542808.832217485
2211820.37599622542769.5330834842211859.66397539542730.289395556
2211892.40341122542628.8102678062211938.23304397542543.699545652
2211964.43082622542488.0877802222212016.79686321542373.510909647
2212049.53170589 542288.372628482212069.15404198542190.218953401
2212069.18488181 542131.259425642212069.16716531542055.959707484
2212065.88961281541970.881137475 2212023.3168633541879.256976888
2211984.06234863541781.0091418922211980.78184338541673.005748972
2211987.34777513541584.6417524812211993.89205338541499.508064479
2211993.85399573541388.2346649772211993.85858889541309.702997893
2211993.89074105541211.477800637 2211993.8818828541142.762386888
2211993.87597731541096.9117568142212042.96216522541037.979459971
2212098.62183081540998.7259295582212164.08167364540962.708285064
2212213.16261221540920.1781864022212226.27544689540871.063455224
2212213.16195606540795.7962173072212199.23055346540765.567275152
 2212193.5429008540753.2267486452212124.81600414540671.423762649
2212075.73112856540628.837889805 2212068.1120493540621.587248147
2212011.17089021540567.3967397212212006.94517688540563.375422314
2211999.76015189540552.4361397332211931.68056363540448.787068814
 2211879.1655768540392.685474977 2211836.7345593540347.357481644
2211812.86682488540291.4474884722211753.19962138540151.682019979
2211671.32609747539967.8464296462211653.93275955539698.206548974
2211648.76807173539618.1430608182211665.12401013539586.041747063
2211668.89106297539578.6477329732211674.34872922539568.136599138
 2211653.6935868539405.4463077342211641.18540972539305.478331804
2211627.09160589539192.8407618112211669.43830597539076.732398227
2211701.36212663539044.1819383952211742.23835722539002.504200235
2211901.25575572 538840.368041562211921.01523064538820.221756399
2211903.86204971538187.5858825592211888.27874756537603.737640813
2211857.62493747537295.4406852282211831.20143388537196.731565058
2211761.45452614537139.5554983172211718.94312821537100.245865643
2211711.22824864537090.4384705572211682.91892205537054.456259057
2211630.55747822537034.7735556512211587.97390197537021.681390226
2211557.31681105536973.1247288142211548.73283872536959.529611647
2211548.70396739536916.9712978152211548.70593588536877.705628306
2211555.23446614536841.6545193052211538.87754346536792.583751306
2211519.24667722536743.490673646 2211511.7076503 536733.58616589
2211466.89999713536674.726375476 2211461.0601138536655.564340308
2211443.96041048536599.4542163162211447.24649313536527.469124064
2211476.69722164536350.667968482 2211515.9792953536281.974864393
2211584.70061456536209.9444966472211650.16242589536128.076222062
2211663.28083797536062.6206443162211659.99639572535993.883248985
2211679.65154013535898.9618508962211712.36046422535810.591620818
2211751.63072689535751.6540746392211800.75759713535718.940885484
2211856.40053047535722.2440284792211902.22097689535725.480898649
2211970.97608872535718.9353080542212010.25488155535666.583050564
2212029.86507855535617.4509309832212049.54154839 535558.56390965
2212062.59106296535479.9991061392212157.52460013535398.148548067
 2212242.6609128535335.9865988942212308.12534881535316.310785234
2212380.13340689535250.8890000582212484.88319738 535162.52139464
2212576.51424772535077.3568668072212655.08561289535002.103408396
 2212713.9887103534930.0691036432212730.34530489534854.819910318
 2212717.0615388534819.7983268052212694.33651863534759.886373147
2212668.16006181534671.4823504842212612.49580306534570.013065234
 2212596.1424893534481.6766277252212599.40134105534344.146719068
2212592.87970056534262.3401241452212612.49481881534228.825099304
2212671.43138072534128.1264818162212759.81834306534023.369145393
2212802.38879597533961.2236003882212822.03081705533915.385109395
2212864.53565331533738.6131532342212864.53926222533637.156663224
2212874.37290397 533519.304536732212874.35387513533421.140362978
2212897.29969539533355.6303233952212969.32087681533296.734115735
2212995.47469589533241.0623110682213002.05506331533182.147730723
2212977.83004613533128.8706063182212969.32284531533110.161654234
2212926.76092255533054.5098626462212877.66325171532989.058221892
2212848.16659155532907.2168501472212841.66004288532815.532650307
2212867.85290389532707.5473019782212879.97886388532690.357375726
2212907.10545005532651.9037124812212920.18055514532570.046920806
2212972.56266822532517.7241908162213018.42051613532484.989676222
2213054.42405306532448.9569398912213067.46569364532435.916939721
2213080.58869888532422.795902982 2213093.6690533532386.789413318
2213077.33509646  532334.36464942213028.23676947532268.913008645
 2212966.0472613532210.0181133152212897.26951171532141.262017235
2212831.83525939532085.6384408182212749.99651231532026.731734484
2212632.15455638531941.607232809 2212527.3945953531843.402048647
2212429.22517222531777.9231769742212350.66594614531702.638550639
2212265.55850481531650.2967918072212196.80109638531578.249691814
 2212174.0134123531518.6786167322212154.24311064531466.992696479
2212160.78377996531398.2615347212212193.51173289531300.015012056
2212239.36990888531205.0890208182212285.18937105531100.346120059
2212286.95708406531077.3753654812212291.73528972531015.274767891
2212262.27242213530920.3251546472212230.47917864530903.952155888
2212178.11937521530851.5884154742212158.46357463530805.787654057
2212138.82745905530733.7687692342212102.85541813530671.578276813
2212011.19352797530596.2670757322211926.09396064 530511.18391256
2211863.87919006530416.2569370572211782.05619097530291.870046735
2211742.76722755530157.6498427242211706.78764072 530049.67007181
2211700.20071164529899.0873677282211723.15637438529800.895963058
2211768.98928797529686.3364809012211804.95411105529578.295030311
2211834.42419647529493.195791066 2211837.7030613529414.625738233
2211844.22831072529293.5200093092211844.27030538 529162.61508739
2211824.60695888529070.9640239782211834.45109931528943.295972228
2211847.49995773528841.8063458062211867.17609946528759.994173482
2211909.69996455528658.5212793052211952.24974822528576.681876063
2211998.08102138528540.6534048172212060.29874472528471.933725983
2212122.46889597528386.8128332352212178.12856156528311.524926066
2212204.29780056528246.0972353972212197.77976897528147.889426559
2212178.10297105528066.0546164812212168.27917181527964.592220977
2212168.28901431 527869.660652312212201.05305639527735.441432565
 2212240.3321773527614.3140501382212289.42033371527542.335191473
 2212343.8870883527386.1307794752212373.48676664527305.788748562
2212422.06180072527278.3157063872212483.40419772527331.167306721
2212548.92375171527375.5727297222212631.31761581527377.656715065
2212703.18886314527326.9294543122212783.67000139527198.644277811
 2212832.7739058 527116.789126562212906.11299796526982.419644639
2212975.86712356526916.9233845622213024.49137014526874.635411397
2213028.71708347526804.8520863952212930.97974613526596.336427316
2212941.85800523 526449.408899652212988.39334522526341.562658638
2213040.73871297526280.4600905632213114.94821022526228.103239894
2213162.97501706526219.4064068942213267.73235346526219.388362318
2213363.72035047526219.3716300582213433.53221872526184.484232649
2213507.74270022526132.1283662322213577.55883355526057.914931983
 2213656.1246213526009.9176526522213725.94141081525935.704546481
2213835.08325289525835.2989073992213918.01550172525743.676387221
 2214005.2695923525700.0078393972214088.19167055525656.370131388
 2214179.8558573525647.6683771462214284.62402047525569.122930557
2214354.42932706525512.3484378162214441.71852255525425.085817054
2214476.61149739525359.5980871472214485.38838272525250.520221308
2214485.37985255525128.2730904822214476.63347897525032.305434644
2214485.38707039524918.8371576522214472.24930139524831.497109234
2214472.27784464524696.2027603982214437.36420055524587.129815817
2214406.81931414524464.9181179852214371.90567005524355.784806058
 2214341.3161643524255.460859731 2214340.1330958524188.994129151
 2214384.3042673524041.6853686422214440.76511239523889.522287145
2214470.24766497523734.8575702312214428.49348338523629.274776146
 2214342.5582878523587.5310932252214256.65163547523580.175464898
2214155.99796538523604.7292215682214057.79606205523587.535030231
2214006.21217571 523528.650305482213954.70112389523373.980339229
2213814.77325414523238.949441314 2213713.1796253523176.675615728
 2213648.7388093523104.8384890562213578.77766314522998.027679056
2213591.10080121522934.1531348972213621.22541289522870.704770982
2213660.85361446 522846.952521892213733.44959788522784.464785978
2213815.20927688522672.1047744752213820.80473813522541.237910226
2213713.79281305522382.2884249842213701.25576463522369.093569472
2213508.52911597522166.2695000622213291.23854005521985.778391227
2213138.73392381521865.4193799792212885.03233147521809.977561727
2212742.84987305521857.3606690622212664.38382263521920.664020151
2212573.41057938521942.9710621392212493.13843022521914.440279305
2212394.14650223521849.3219712232212224.15340389521845.363973901
2212132.48626439521845.3518348042212067.04184146 521694.79767397
2211952.44659822521554.0312232232211850.98518696521315.069758892
2211923.02769381521256.1722389012211929.53522672520896.121777892
2211909.90534472520752.0974596442211896.82663073 520608.05640915
2211854.27881555520454.1823730622211762.62709597520326.559596807
2211724.20755339520241.7326667312211686.20172389520197.393516555
2211626.97185548520197.3590678132211607.95877014520258.688669562
2211625.04502206520396.2937093082211556.96969889 520430.83038564
2211451.57850547520357.9889958952211347.20371422520291.008814901
2211320.22050047520100.9626070562211300.19330955519835.421143398
2211214.91526489519764.7890668062211134.86654046519584.933783472
 2210949.4666488519544.8433124722210839.22802414519414.536814556
2210729.02155164519459.6436797232210518.60629006519524.806279063
2210199.01801847 519293.160744982210251.45688997519006.889663979
2210235.05370755518774.7247739732210233.31519397518750.385583818
 2210167.2064023 518641.534423562210042.91039105518565.765874311
2209909.77286205 518539.750834482209643.25502239518563.081824556
2209177.26612496518484.6590811462208972.74389622518442.561396316
2208787.79741572518072.6336584842208691.89340805517969.866475567
2208780.91127464517798.5849939732208822.04209788517716.366326392
 2208630.2212873517551.9873900562208431.56912555517476.642068312
2208246.59508605517140.9219392242208130.14518772516798.404251561
2208041.05579896516496.9809698912208068.49636088516209.259760559
2207952.03694813 515962.650017562207774.50613523515856.353642225
2207538.15227722515743.3269653922207389.17488489515681.670592651
2207342.90791705 515542.958927812207281.27647863515465.909541234
2207116.83979964515440.1855113062206967.87093747515424.807589307
2206746.91435839515347.7385177312206608.21187988515090.803664148
2206354.45352913514899.3824590592206171.49424939514741.477591142
2206130.37064397 514551.34312889 2206161.2242568514376.683373228
2206068.73723705514202.0006517322205900.43508022514056.571152568
2205519.48046155 513854.98822239 2205434.9520873 513779.07072331
 2205328.7318273513618.6891543122205259.36188731513423.614085138
2205174.88797489 513274.960182982205079.49676147513211.227042735
2204951.58625613513174.351788402 2204817.1777323513104.998252556
2204728.33473414513009.6044144782204658.96577838512886.049543485
2204591.77168705512688.7953448152204559.25108281 512506.76749365
2204548.43384722 512359.330780642204671.96476814512194.606700644
2204745.66901705512012.5457130672204713.15497448511845.638566568
2204825.87850231511685.2346878952204851.88960513511555.172612056
2204739.17001431511401.2736416462204637.10263313511299.026142731
2204589.61946039511238.3533638122204526.74491422 511002.47260198
2204446.56134756510657.8286062332204401.01813155510430.231948555
2204327.34176973  510293.66266792204275.31759556510191.805260062
2204257.95739405510074.7500479822204312.00879514509964.321791142
2204427.05876188509756.1309345662204433.54332897509452.662381396
2204322.99072856509023.4978853912204149.57637721508774.211638555
2204048.64252397508715.3843283952203898.37806071508707.693070814
2203852.12323196508935.0535084752203809.75783114509093.055489063
2203736.52831881509170.130466148 2203655.5914728509108.447518647
2203609.37043664508854.1425810612203497.63706431508684.584849313
2203347.32568513508611.3527123182203193.18983856508565.106085643
2203100.70806813508441.829757392 2203073.7520853508279.960658565
2203093.02468455508064.1900927282203131.52231097507883.054628223
2203304.95044181507840.6544505662203374.30332147507701.972969398
2203385.89155288507416.8295108082203347.35619688506834.921225816
2203158.53505223506295.4419898092203058.31871723 505979.45016773
2203023.62521705505528.6534971452203004.39297205505235.748899221
2202904.17827746505016.1512413172202823.25455481 504869.72174415
2202773.16443188504696.3008311392202642.16567813504503.635205984
2202457.17884338504337.9334376452202187.46120697504260.881098315
2201963.93409497504307.1073838172201817.50886288 504438.09596698
2201694.19710164504534.4212336392201567.04479688504538.291632727
2201462.99907322504418.8469897212201462.99119923504118.263929471
2201289.61687405503929.474608898 2201054.5474623 503725.22731398
2200796.35244064503598.0815708942200553.60653505503640.473546475
 2200384.0763623503625.0516613132200229.90278614503547.967169806
2200110.48307747503467.0217936492200037.26307955503386.130551234
2199910.09338638503293.6737151442199798.34984347503366.849749893
2199578.66885239503390.0081681462199409.13375838 503366.84778139
2199255.01103513503231.9681298882199070.00779621503197.308422312
2198869.66666147503262.7866378132198657.74254464 503486.28684698
2198453.49918672503567.2286142262198214.58955956503555.701734394
2197967.97391105503567.2355039722197817.67139013503636.574932233
2197725.19355673503640.4364730572197628.87058663503617.323986471
2197524.83700205503501.7323541492197416.90283471503409.224008977
2197320.55985156503347.5801033972197197.28549181503289.788552314
2197050.84352747503309.0381857312196915.99373156503359.152258724
2196804.24165846503351.4304893912196711.76415314503305.176644892
2196619.23776339503266.6658951492196411.18502988503181.878991231
2196295.55304331 503135.662220152196168.39745772503089.433638066
2196072.06398897503100.9569089712196122.68626305503170.661822066
2196068.20507281503251.2236688142195971.87554105503270.551714137
2195844.72881372503239.6885868912195648.21116214 503228.14300631
2195540.30488189503197.2811913942195463.22695205503089.426092148
2195401.58239031502881.3120070552195260.49769872 502688.06140931
2195185.79049905502480.5966011432195027.78490955502337.967293233
2194842.84597497502291.7456008942194727.23104872502284.067466646
2194426.64634806502361.1335854832194160.76925513  502442.0169539
2193783.12532538502627.0096941442193548.06772463502792.717367977
2193101.07288373503232.0160300582192922.91182272503548.435672805