Geom Title=WacissaSEFA
Program Version=4.10
Viewing Rectangle= 2130200.52695768 , 2137295.45306308 , 478995.310307368 , 436630.070510462 

River Reach=Wacissa         ,SEFA            
Reach XY= 139 
2130596.80979702478579.9648191632130838.99730477 478098.19380109
2130982.94485152 477700.858637752131349.41393483476759.652186841
2131656.70564309476306.5271088332132004.36898977475658.595005751
2132463.99733558474064.3396640872132552.48600376473737.122142673
2132512.54513875473262.424273163 2132519.0110051472665.209588334
2132594.68605059472281.9833206682132593.81400508471669.926145837
2132443.16404393 471053.923112752132482.22630176470441.944021747
2132685.35155168469895.0688031612132917.12208551469494.027282417
2133201.84461316469139.8606679142133332.44704226468669.739232838
2133326.84436318468139.8606994152133437.95568952467827.360668257
2133618.51110268467487.0828054992133722.67788908467073.888421923
2133997.02707791466456.8853908332134420.59447226465757.915988252
2134469.20559549465421.1105595082134618.51107118465323.888312995
2134795.59437841465209.3048807532134990.03887144464882.916097835
2135021.28880891464775.2772054972135246.98323941464622.499623924
2135424.06654668 464369.027361842135549.61714858463959.541960329
2135756.30997667463531.8098761742135765.10392234463105.828116581
2135694.83700252463013.0123573392135740.69616276462854.668842003
2135882.39994758461917.638235748 2135917.1223191461577.360701084
2136031.70542327 461327.360544922136205.31662458461112.082760245
2136196.08304727461003.2781878412136141.08053258460941.943992913
2136179.27501002 460834.305100592136217.46948743460638.124390587
2136135.87220967 460372.499593752136073.37233466 460221.45790109
2136116.77513501460032.2217310072136148.02507252 459974.93017891
2136106.35848919459811.7356234192135970.94176525459638.124422088
2135922.33064201459509.6522380862135766.08062643459415.902097508
2135609.83061084459402.0133457482135356.35834876459134.652331918
2135286.91393384459047.8467312462135233.47801709458739.470051423
2135120.24727243458346.4577140812135116.77516651 458124.23571758
 2135047.3304235457974.9299138342135095.94154677457731.874625668
2135082.05279499457488.8190094232134974.41390267457349.930179581
2134953.58061102457089.513377577  2134887.608302456853.402301252
2134653.84597427456674.0614525822134397.25593627456423.705982164
2134308.18131125456362.0827458352134212.69528174456136.388315335
2133930.57707959455732.7424690872133704.88264909455567.812024668
2133427.10794216455014.4496143312133405.40358925454890.728733167
 2133446.2020641454839.5132844152133449.67417002454761.388440669
2133426.70013458454658.6550503372133348.54576334454518.766878664
2133242.20903376454440.6417068392133196.63629025454329.964762837
2133229.18806243454171.544476002  2133224.847848453887.256330669
  2133224.847848453744.0272864252133222.67790484453570.416085079
2133192.29574776453351.2321402582133157.57370433453099.496095166
2133142.38278985453012.690494508 2133136.1790621452828.996964246
2133116.34084716452537.4299620842133138.04224733452231.440416589
2133205.31671909 451988.384800332133229.18806243 451840.81554167
2133248.71951944451652.0134258272133333.35484883451608.610625505
2133357.22652027451356.874580413 2133370.2471635451013.992392167
2133355.05624899450749.2357038412133350.71603459450614.687088415
2133452.71254975450467.1175016612133537.34787917450234.912585497
2133606.79229409449935.4335256672133667.55628017449668.506566077
2133786.91398108449410.2600353362133803.28501135449231.585851997
2133893.25071067449112.0828101642134000.88960302 448877.70795083
2134004.37614459448802.2248340852134221.37571058 448485.34653084
2134301.23677135448330.8327322452134374.15362024448198.888442338
2134552.16015401448058.0826215892134766.51471218447754.443793163
2134934.91726249447554.7909772552135198.80617043447336.041086674
2135363.73694292447021.8051665872135440.12556967446818.679916665
2135499.15333876446613.818777829 2135610.2646651446488.819027841
2135858.52860427 446294.374534832135932.75811458 446228.21817109
2136091.16724658446132.9161963312136146.72290975445999.235689417
2136313.38957116445877.7077172552136478.32001558445681.527335331
2136594.63966483445464.5133336632136653.66743392445289.166243419
2136671.02861968445110.3467191612136525.61388427444952.558648914
2136344.42002094444449.649877831 2136196.6040436444221.843903005
2136063.89794418444035.7087765782135717.38256109 442911.73563084
2135446.54944134442411.735646591 2135191.0230495441668.295860499
2135477.79937884440640.9022459982135800.71605584 440088.81903258
2136154.88267034439114.8606786732136191.34093076438505.485585079
 2135930.4388935437936.100568995  2135672.968936437576.675434828
 2135532.4869335437045.415998667
Rch Text X Y=2131830.7290811,468196.327614
Reverse River Text= 0 

Type RM Length L Ch R = 1 ,45988.37,317.84,385.74,478.06
XS GIS Cut Line=4
2131190.63811983 478563.658339332131142.88678885478548.832335502
2130270.08505675 478277.841735752130222.33372577478263.015731922
Node Last Edited Time=Apr/23/2015 14:30:36
#Sta/Elev= 137 
     -50 29.8982       0   29.27    4.99   29.26    9.99   29.21   14.98   29.01
   19.98   28.85   24.97   28.71   29.96   28.54   34.96   28.35   39.95   28.29
   44.95    28.2   49.94   28.08   54.93   28.05   59.93   28.17   64.92   28.11
   69.92   27.93   74.91      28    79.9   27.84    84.9   27.59   89.89   27.44
   94.89   27.38   99.88   27.72  104.87   27.78  109.87    27.4  114.86   27.36
  119.86   27.54  124.85   27.71  129.84   27.78  134.84   27.65  139.83   27.45
  144.83   27.39  149.82   27.47  154.81   27.66  159.81   28.01   164.8   28.26
   169.8   28.41  174.79   28.25  179.78   28.25  184.78   28.41  189.77   28.35
  194.77   28.15  199.76   27.69  204.75   27.72  209.75   27.55  214.74   27.42
  219.74   27.54  224.73   27.96  229.72   27.65  234.72   27.44  239.71    27.6
  244.71   27.72   249.7    27.9  254.69   28.31  259.69   28.47  264.68   27.83
  269.68   27.22  274.67   27.23  279.66    27.3  284.66   27.01  289.65   26.15
  294.65   26.12  299.64   26.12     302   25.94     324   25.22     348   25.18
     370   24.94     391    24.2     413   23.87     437   24.09     457   24.82
     476   24.41     499   24.45     522    24.8     547   24.85     571   25.05
     589   24.76     620    25.5  624.25   26.12  629.24   26.12  634.24   26.13
  639.23   26.43  644.23   27.14  649.22    27.1  654.22    27.1  659.21   27.27
   664.2   27.16   669.2   27.11  674.19   27.16  679.19   27.16  684.18   27.24
  689.17   27.26  694.17   27.18  699.16   27.11  704.16   27.09  709.15   27.25
  714.14    27.5  719.14   27.47  724.13   27.29  729.13   27.21  734.12   27.17
  739.11   27.09  744.11   27.04   749.1   27.18   754.1   27.44  759.09   27.61
  764.08   27.46  769.08   27.19  774.07   27.32  779.07   27.78  784.06   28.01
  789.05   27.77  794.05   27.59  799.04   27.55  804.04   27.63  809.03   27.79
  814.02   28.01  819.02   28.16  824.01    28.1  829.01   28.11     834   28.14
  838.99   28.24  843.99   28.22  848.98   28.38  853.98   28.69  858.97   28.56
  863.96   28.45  868.96   28.56  873.95   29.13  878.95   29.38  883.94   29.37
  888.93   29.25  893.93   29.16  898.92   29.03  903.92   28.88  908.91   28.77
   913.9    28.8   963.9 29.9081
#Mann= 3 , 0 , 0 
     -50      .3       0  279.66     .25       0  644.23      .3       0
Bank Sta=279.66,644.23
XS Rating Curve= 0 ,0
Exp/Cntr=0.3,0.1

Type RM Length L Ch R = 1 ,45602.63,435.3,393.12,343.55
XS GIS Cut Line=3
2131316.88578469478311.7632558352130415.92925325477822.571977004
2130394.13466559477810.738196089
Node Last Edited Time=Apr/23/2015 14:32:46
#Sta/Elev= 134 
       0   29.72    4.98   29.57    9.95   29.77   14.93      30   19.91   29.78
   24.88   29.44   29.86    29.3   34.84   29.44   39.81    29.4   44.79   29.36
   49.77   29.31   54.74   29.01   59.72   28.62    64.7   28.19   69.67   28.08
   74.65   28.04   79.63   27.99    84.6   28.35   89.58   28.15   94.56   27.88
   99.53   27.86  104.51   27.67  109.49   27.83  114.46   27.99  119.44      28
  124.42   28.11  129.39   27.89  134.37   27.78  139.35   27.81  144.32   27.87
   149.3   27.77  154.28   27.66  159.25   27.65  164.23   27.74  169.21    27.8
  174.18   27.82  179.16   27.76  184.14   27.64  189.11   27.52  194.09   27.53
  199.07   27.77  204.04   27.77  209.02   27.69     214   27.72  218.97   27.58
  223.95   27.59  228.93   27.64   233.9   27.47  238.88   27.45  243.86   27.28
  248.83   27.62  253.81   27.92  258.79   27.84  263.76   27.57  268.74   27.54
  273.72    27.6  278.69   27.49  283.67   27.88  288.65   27.84  293.62   27.47
   298.6   27.38  303.58   27.55  308.55    27.9  313.53   28.38  318.51   28.13
  323.48   28.18  328.46    28.2  333.44   27.81  338.42   27.36  343.39   27.23
  348.37   27.33     354   24.17  388.18  23.879     394   23.83     422   23.59
     458   23.95     486   23.83     519   24.31     553   24.51     585   24.86
     615   25.43     646   25.59     676   24.74     691   24.82     721   25.08
     739   25.12     760    25.2     781   25.23     801   25.38     810    27.3
  816.18   27.34  821.15   27.53  826.13   27.45  831.11   27.24  836.08   27.13
  841.06   27.08  846.04    27.2  851.01   27.36  855.99   27.35  860.97   27.16
  865.94   27.33  870.92   27.38   875.9   27.41  880.87   27.28  885.85   27.44
  890.83   27.63   895.8   27.46  900.78   27.38  905.76   27.45  910.73   27.63
  915.71   27.52  920.69   27.76  925.66   27.68  930.64   27.84  935.62   27.94
  940.59   27.63  945.57   27.61  950.55   27.59  955.52   27.48   960.5   27.69
  965.48    27.6  970.45   27.75  975.43   28.07  980.41   28.35  985.38   28.41
  990.36   28.21  995.34   27.88 1000.31   27.61 1005.29   27.62 1010.27   28.04
 1015.24   28.16 1020.22   28.34  1025.2   28.61    1050 29.5266
#Mann= 3 , 0 , 0 
       0      .3       0  338.42     .25       0  821.15      .3       0
Bank Sta=338.42,821.15
XS Rating Curve= 0 ,0
Exp/Cntr=0.3,0.1

Type RM Length L Ch R = 1 ,45209.51,2265.64,2280.67,2298.55
XS GIS Cut Line=3
2131433.02498809477875.3622257562130584.85870543477523.425921753
2130538.93521094 477504.37052513
Node Last Edited Time=Apr/23/2015 14:34:24
#Sta/Elev= 113 
       0   29.39    4.99    29.5    9.98   29.29   14.97   29.03   19.96   29.04
   24.95   29.11   29.94   28.82   34.93   28.42   39.93   28.21   44.92   28.08
   49.91   27.99    54.9   27.93   59.89   27.78   64.88   27.87   69.87   27.75
   74.86   27.68   79.85   27.64   84.84   27.62   89.83   27.67   94.82   27.75
   99.81   27.74   104.8   27.55  109.79   27.52  114.79   27.67  119.78   27.56
  124.77   27.54  129.76   27.56  134.75    27.6  139.74   27.73  144.73   27.79
  149.72   27.72  154.71   27.52   159.7   27.35  164.69   27.33  169.68   27.33
  174.67   27.41  179.66   27.67  184.65   27.49  189.65   27.44  194.64   27.41
  199.63   27.42  204.62   27.36  209.61   27.32   214.6   27.28  219.59   27.38
  224.58   27.32  229.57   27.15  234.56   27.34  239.55   27.52  244.54    27.6
  249.53   27.69  254.52   27.44  259.52   27.67  264.51   27.69   269.5    27.4
  274.49   27.49  279.48   27.53  284.47   27.55  289.46   27.55     295    26.6
     337   23.59     375   23.77     427   23.04     460    23.7     483   23.82
     510   23.44     540   25.15     566   24.95     602   24.47     637   24.17
     669   23.88     702   24.66     722    26.5     732   26.88  738.62   27.32
  740.58  27.359  743.61   27.42   748.6   27.38  753.59   27.48  758.58   27.65
  763.57   27.76  768.56   27.51  773.55   27.46  778.55   27.28  783.54    27.3
  788.53   27.26  793.52   27.29  798.51   27.33   803.5    27.3  808.49   27.24
  813.48   27.35  818.47   27.52  823.46   27.25  828.45   27.25  833.44   27.21
  838.43   27.28  843.42   27.37  848.42   27.68  853.41   28.23   858.4   28.65
  863.39   28.03  868.38    27.5  873.37   27.66  878.36   27.91  883.35   28.51
  888.34   28.16  893.33   28.02  898.32   28.08  903.31   28.29   908.3   28.45
  913.29   28.71  918.28   28.95     968 29.6473
#Mann= 3 , 0 , 0 
       0      .3       0  289.46     .25       0  743.61      .3       0
Bank Sta=289.46,743.61
XS Rating Curve= 0 ,0
Exp/Cntr=0.3,0.1

Type RM Length L Ch R = 1 ,42928.84,2011.8,1990.98,1984.42
XS GIS Cut Line=4
 2132461.3483616475851.7991404182132369.17534676475813.015956745
2131725.13201544475542.0250289142131675.10970229 475520.97738756
Node Last Edited Time=Apr/23/2015 14:37:17
#Sta/Elev= 74 
    -100 29.4024       0    28.1    4.99   28.52    9.98   28.51   14.97   28.37
   19.96   28.29   24.95   28.07   29.95    27.9   34.94    27.7   39.93   27.37
   44.92   27.12   49.91    27.2    54.9   27.22   59.89   27.29   64.88   26.98
   69.87   26.67   74.86   26.91   79.86   27.25   84.85   27.33   89.84   27.23
   94.83   26.75   99.82   26.65  104.81   26.79   109.8   26.98  114.79   26.96
  119.78   26.72  124.77    26.6  129.76   26.52  134.76   26.51  139.75    26.5
  144.74   26.33  149.73   26.52  154.72   27.43  159.71   28.77   164.7   29.14
  169.69   29.47  174.68    29.4  179.67   28.73  184.67   27.88     185   26.58
     200   25.66     226   25.46     265   23.97     295   23.22     326   23.81
     357    23.3     396   23.48     441   23.22     495   23.56     531    23.6
     557   23.44     579   24.52     597   25.66   608.9  25.485     612   25.44
  613.89   27.56  618.88   27.32  623.87   27.09  628.86   27.17  633.85   27.56
  638.84   27.49  643.83   27.16  648.82   27.06  653.81    27.1   658.8    27.2
   663.8   27.31  668.79   27.37  673.78   27.38  678.77   27.64  683.76   27.78
  688.75   27.87  693.74   28.01  698.73   28.26     753 29.7601
#Mann= 3 , 0 , 0 
    -100      .3       0  169.69     .25       0  613.89      .3       0
Bank Sta=169.69,613.89
XS Rating Curve= 0 ,0
Exp/Cntr=0.3,0.1

Type RM Length L Ch R = 1 ,40937.86,449.3,472.74,433.5
BEGIN DESCRIPTION:
USGS Gage
END DESCRIPTION:
XS GIS Cut Line=3
2132115.78116852 473599.337313252133629.10688201474106.125341669
2133675.63703437474121.707528615
Node Last Edited Time=Apr/24/2015 13:27:59
#Sta/Elev= 214 
       0   28.27    4.99   28.09    9.97   28.05   14.96   27.93   19.95   27.41
   24.94      27   29.92   26.96   34.91   27.26    39.9   27.49   44.89   27.47
   49.87    27.4   54.86   27.36   59.85   27.41   64.83   27.65   69.82   27.75
   74.81    27.6    79.8   27.55   84.78   27.48   89.77    27.6   94.76   27.49
   99.75   27.14  104.73   26.91  109.72   27.02  114.71   27.17  119.69   27.14
  124.68   27.02  129.67   27.04  134.66    27.1  139.64   27.05  144.63   26.82
  149.62   26.82  154.61   26.93  159.59   27.12  164.58   27.43  169.57    27.5
  174.55   27.31  179.54   27.09  184.53   26.88  189.52   26.78   194.5   26.76
  199.49   26.79  204.48   26.85  209.47   27.03  214.45   27.41  219.44   27.57
  224.43   27.48  229.41   27.21   234.4   27.22  239.39   27.16  244.38   27.24
  249.36   27.58  254.35   27.27  259.34   27.06  264.33   26.91  269.31   27.02
   274.3   27.06  279.29    27.1  284.27   27.19  289.26   27.32  294.25   27.29
  299.24    27.1  304.22   26.77  309.21   26.43   314.2 26.6608  319.19 26.5968
  369.19 26.7119  419.19 26.5766  469.19  26.724  519.19   26.44  568.55   26.44
  638.37   26.16  643.36   26.52  648.35   26.78  653.33   26.57  658.32   26.25
  663.31   26.28   668.3   26.34  673.28   26.36  678.27   26.12  683.26   26.05
  688.24   26.07  693.23   26.05  698.22   26.08  703.21   26.39  708.19   26.73
  713.18   26.82  718.17    26.4  723.16    26.1  728.14   26.66  733.13    27.3
  738.12   27.03   743.1   26.23  748.09   25.92  753.08   26.03  758.07   26.11
  763.05   25.98  768.04   25.91  773.03   25.99  778.02   26.01     783   26.31
  787.99   26.85  792.98   26.65  797.96   26.41  802.95   26.38  807.94   26.22
  812.93   26.05  817.91   26.52   822.9    27.1  827.89   27.21  832.88   27.15
  837.86   27.01  842.85   26.82  847.84   26.83  852.82   26.66  857.81    26.5
   862.8   26.59  867.79   26.26  872.77   26.04  877.76   26.18  882.75    26.4
  887.74   26.53  892.72   26.45  897.71   26.01   902.7   26.33  907.68   26.41
  912.67    26.2  917.66   26.35  922.65   26.39  927.63   26.24  932.62   26.15
  937.61   26.14   942.6    26.3  947.58   26.46     954   25.63     973   22.78
     992   22.66    1018   22.59    1042   22.25    1073   22.17    1101   22.41
    1138    22.4    1185   22.98    1220   22.82    1254   23.06 1256.79   26.49
 1261.78   26.39 1266.77   26.44 1271.75   26.74 1276.74   26.82 1281.73    26.6
 1286.72    26.6  1291.7   26.58 1296.69   26.57 1301.68   26.72 1306.67   26.82
 1311.65   26.88 1316.64   26.89 1321.63   26.97 1326.61   26.94  1331.6   26.87
 1336.59   26.85 1341.58   26.98 1346.56   26.94 1351.55   26.82 1356.54    26.7
 1361.53   26.67 1366.51   26.74  1371.5   26.95 1376.49   27.05 1381.47   26.79
 1386.46   27.01 1391.45    27.2 1396.44   27.12 1401.42   27.05 1406.41   27.14
  1411.4   27.14 1416.39   27.09 1421.37   27.19 1426.36   27.02 1431.35   26.92
 1436.33   26.75 1441.32   26.63 1446.31   26.76  1451.3   26.75 1456.28   27.03
 1461.27   27.17 1466.26      27 1471.24   26.78 1476.23   26.84 1481.22   26.87
 1486.21   26.91 1491.19   27.08 1496.18   27.07 1501.17   26.95 1506.16   27.03
 1511.14      27 1516.13   27.14 1521.12   27.12  1526.1   27.06 1531.09   27.07
 1536.08   27.14 1541.07   27.33 1546.05   27.44 1551.04   27.23 1556.03   27.02
 1561.02    26.9    1566   27.22 1570.99   27.46 1575.98    27.3 1580.96   26.94
 1585.95   26.45 1590.94   26.51 1595.93   27.22    1645 29.8508
#Mann= 3 , 0 , 0 
       0      .3       0  947.58     .25       0 1256.79      .3       0
Bank Sta=947.58,1256.79
XS Rating Curve= 0 ,0
Exp/Cntr=0.3,0.1

Type RM Length L Ch R = 1 ,40465.12,683.15,605.05,573.86
XS GIS Cut Line=3
2132195.46977872473175.5342514312132200.24589458473177.013682827
2133643.18428168473623.972762674
Node Last Edited Time=Apr/24/2015 13:28:10
#Sta/Elev= 141 
      -5 29.8302       0   27.76    4.99   27.55    9.97   27.46   14.96   27.29
   19.94   27.12   24.93   26.98   29.91   26.86    34.9   26.79   39.88   26.91
   44.87   27.32   49.85   27.75   54.84    27.6   59.82   27.35   64.81   27.12
    69.8   26.95   74.78   26.89   79.77   26.52   84.75   26.45   89.74   26.46
   94.72   26.55   99.71    26.6  104.69   26.58  109.68   26.35  114.66   26.33
  119.65    26.4  124.63   26.28  129.62   26.46  134.61    26.4  139.59   26.47
  144.58   26.54  149.56    26.3  154.55   26.45  159.53   26.38  164.52   26.11
   169.5   26.23  174.49   26.28  179.47   26.25  184.46   26.33  189.45   26.57
  194.43   26.47  199.42   26.45   204.4   26.46  209.39    26.4  214.37   26.61
  219.36   26.77  224.34    26.9  229.33   27.09  234.31   26.95   239.3   26.36
  269.21 26.5025  319.21 26.4414  369.21 26.3859  419.21 26.2155  469.21 26.3673
  473.61   26.29   478.6   26.36  483.58   26.44  488.57   26.22  493.56   26.15
  498.54   26.35  503.53   26.65  508.51   26.74  588.28 26.0065  638.28 25.9361
  688.28 25.9543  737.84   25.95     744    25.6     762   22.82  772.74   22.67
     777   22.61     800   21.98     828   22.26     848   22.07     874   22.13
     900    22.5     915    23.7     945   25.45     960   25.99     986   27.15
    1013   26.75    1045    26.6    1067   26.97    1082   25.82    1100   23.49
    1116    22.5    1137   22.06    1163   21.97    1184   21.79    1215   22.48
    1244   22.94    1264   25.76 1271.28   26.37 1276.26   26.41 1281.25   26.41
 1286.24   26.51 1291.22   26.51 1296.21   26.39 1301.19   26.35 1306.18   26.31
 1311.16   26.45 1316.15   26.58 1321.13   26.45 1326.12   26.52  1331.1   26.41
 1336.09   26.48 1341.08   26.41 1346.06   26.41 1351.05   26.45 1356.03   26.46
 1361.02   26.38    1366   26.35 1370.99   26.42 1375.97   26.58 1380.96   26.71
 1385.94   26.71 1390.93   26.48 1395.91   26.55  1400.9    26.6 1405.89   26.49
 1410.87   26.65 1415.86   26.65 1420.84   26.47 1425.83   26.52 1430.81   27.43
  1435.8   27.53 1440.78   26.99 1445.77   26.81 1450.75   27.11 1455.74   27.14
 1460.73   26.96 1465.71   26.96  1470.7   27.37 1475.68   27.08 1480.67   26.54
 1485.65   26.86 1490.64   27.13 1495.62   27.46 1500.61    28.8 1505.59   29.66
 1510.58   29.77
#Mann= 3 , 0 , 0 
      -5      .3       0  737.84     .25       0 1286.24      .3       0
Bank Sta=737.84,1286.24
XS Rating Curve= 0 ,0
Exp/Cntr=0.3,0.1

Type RM Length L Ch R = 1 ,39860.07,606.15,404.08,329.22
XS GIS Cut Line=3
2132143.91514025472606.2669921452132168.57174534472610.396377757
2133618.54883227472853.232506245
Node Last Edited Time=Apr/24/2015 13:28:19
#Sta/Elev= 173 
     -25 29.5224       0    27.8    4.98   27.54    9.97   27.47   14.95   27.53
   19.93   27.25   24.92   26.79    29.9   26.71   34.89    26.7   39.87   26.81
   44.85   26.84   49.84   26.81   54.82   26.75    59.8   26.74   64.79   26.64
   69.77   26.68   74.75   26.84   79.74   26.48   84.72   26.53   89.71    26.5
   94.69    26.2   99.67   26.23  104.66   26.43  109.64   26.59  114.62   26.65
  119.61   26.68  124.59   26.67  129.57   26.51  134.56   26.46  139.54   26.66
  144.53   26.74  149.51   26.86  154.49   26.88  159.48   26.78  164.46   26.77
  169.44   26.67  174.43   26.63  179.41   26.61  184.39   26.83  189.38   26.99
  194.36   27.03  199.35   26.99  204.33   26.72  209.31   26.32   214.3   26.11
  219.28   26.15  224.26   26.14  229.25   26.27  234.23   26.48  239.21   26.45
   244.2   26.23  249.18   26.09  254.17   26.21  259.15   26.19  264.13   26.01
  269.12   26.17   274.1   26.39  279.08   26.22  284.07   26.11  289.05   26.45
     300 26.1638     350 26.5764     400 26.1406     450 26.1562  458.49   25.61
  463.48   25.55  468.46   25.54  473.44   25.46  493.38   25.79  498.36   25.89
  503.35   25.95  508.33   25.76  513.31   25.68   518.3   25.75  523.28    25.7
  528.26    25.7  533.25   25.78  538.23   25.73  543.22    25.6   548.2   25.57
  553.18   25.79  558.17   25.84  563.15   25.73  568.13   25.94  573.12   26.37
     580   26.34     583   23.06     588   22.09     608   25.75     618   21.26
     654   21.68     688   20.78     719   21.22     748   21.71     779   22.39
     791   25.06     799   24.48     830   24.83     857   24.82     890   24.91
  892.07  25.043     931   25.06     942    22.6     970    22.6     999   22.22
    1033   21.37    1048   21.36    1080   22.26    1114   22.38    1147   22.72
    1164   25.23 1166.17   26.15 1171.15   26.19 1176.13   26.24 1181.12   26.25
  1186.1   26.23 1191.09   26.16 1196.07   26.11 1201.05   26.08 1206.04   26.21
 1211.02   26.13    1216   26.12 1220.99   26.11 1225.97    26.1 1230.96   26.08
 1235.94   26.14 1240.92   26.18 1245.91   26.21 1250.89   26.12 1255.87   26.14
 1260.86   26.19 1265.84   26.16 1270.82   26.27 1275.81   26.21 1280.79   25.88
 1285.78   25.89 1290.76   25.91 1295.74   25.97 1300.73   25.98 1305.71   25.93
 1310.69   25.96 1315.68   26.06 1320.66   26.11 1325.64    26.1 1330.63   26.23
 1335.61   26.24 1340.59   26.35 1345.58   26.35 1350.56   26.25 1355.55   26.23
 1360.53   26.14 1365.51   26.28  1370.5   26.43 1375.48   26.52 1380.46   26.58
 1385.45   26.56 1390.43   26.67 1395.42   26.63  1400.4    26.4 1405.38    26.4
 1410.37   26.55 1415.35   26.63 1420.33   26.82 1425.32   26.92  1430.3   27.07
 1435.28   27.47 1440.27   27.64 1445.25   27.97 1450.24   28.19 1455.22   28.43
  1460.2   28.52 1465.19   28.23 1470.17   27.79
#Mann= 3 , 0 , 0 
     -25      .3       0     580     .25       0 1176.13      .3       0
Bank Sta=580,1176.13
XS Rating Curve= 0 ,0
Exp/Cntr=0.3,0.1

Type RM Length L Ch R = 1 ,39455.99,585.21,590.18,583.98
XS GIS Cut Line=3
2132221.36199409472328.8474001742133245.49642876472173.995675758
2133343.60129008472159.161971866
Node Last Edited Time=Apr/24/2015 13:28:27
#Sta/Elev= 132 
       0   28.21    4.98   27.94    9.96   27.95   14.94   28.08   19.92   28.03
    24.9   27.91   29.88    27.8   34.86   27.77   39.84   27.89   44.82   27.92
    49.8    27.4   54.78   27.17   59.76   27.11   64.74   26.99   69.72   26.97
    74.7   26.78   79.68   26.58   84.65   26.45   89.63    26.3   94.61   26.28
   99.59   26.08  104.57   25.95  109.55   26.15  114.53   26.32  119.51   26.27
  124.49   26.21  129.47   26.17  134.45   26.23  139.43   26.32  144.41   26.34
  149.39   26.16  154.37   26.04  159.35   26.38  164.33   26.74  169.31   26.58
  174.29   26.31  179.27   26.49  184.25   26.26  189.23   25.91  194.21   25.79
  199.19   25.75  204.17   25.48  209.15   25.46  214.13   25.73  219.11      26
  224.09   26.06  229.07   26.05     236   25.91     241   26.04     264   25.08
     286   22.19     307   21.69     341   21.43     366   21.96     393   21.92
     424   22.53     448   22.75     480   21.77     514   21.75     550   21.91
     569   22.26     593   21.16     623   21.24     658   22.37     695   22.13
   712.1   25.07  717.08   25.41  722.05   25.43  727.03   25.45  732.01    25.4
  736.99   25.52  741.97   25.81  746.95   26.05  751.93   26.11  756.91   26.18
  761.89   25.93  766.87    25.7  771.85   25.85  776.83   25.91  781.81   25.86
  786.79   25.94  791.77   26.05  796.75   25.91  801.73   25.84  806.71   26.02
  811.69   26.46  816.67   26.38  821.65   26.09  826.63    26.1  831.61   25.86
  836.59   25.78  841.57   25.71  846.55   26.07  851.53   25.88  856.51    26.1
  861.49   26.03  866.47   25.96  871.45   25.82  876.43   26.09  881.41   26.18
  886.38   25.77  891.36   26.09  896.34   26.18  901.32   26.13   906.3   26.63
  911.28   26.37  916.26   26.26  921.24   26.44  926.22   26.28   931.2   26.17
  936.18   26.38  941.16   26.26  946.14   26.21  951.12   26.33   956.1   26.14
  961.08   26.26  966.06   26.37  971.04   26.48  976.02   26.37     981   26.53
  985.98   27.11  990.96   27.48  995.94   27.59 1000.92   27.61  1005.9   27.33
 1010.88   27.41 1015.86   27.64 1020.84    27.6 1025.82   27.57  1030.8   27.48
 1035.78   27.35    1135 29.3422
#Mann= 3 , 0 , 0 
       0      .3       0     264     .25       0  722.05      .3       0
Bank Sta=264,722.05
XS Rating Curve= 0 ,0
Exp/Cntr=0.3,0.1

Type RM Length L Ch R = 1 ,38865.81,2900.33,3248.77,3380.07
XS GIS Cut Line=2
2132231.92004383471737.5946456642133520.00670651471540.510394171
Node Last Edited Time=Apr/24/2015 13:28:35
#Sta/Elev= 150 
       0   28.65    4.99   28.64    9.99   27.58   14.98   27.41   19.97   27.11
   24.96   27.01   29.96   27.26   34.95   27.23   39.94   26.75   44.93   26.63
   49.93   26.36   54.92   26.11   59.91   26.07    64.9   26.37    69.9   26.33
   74.89    26.1     100 26.2127  104.85   25.53  109.84    25.6  114.83   25.71
  119.82   25.98  124.82   26.04  129.81   25.81   134.8   25.65  139.79   25.62
  144.79   25.88  149.78   26.34  154.77   26.45  159.76   26.53  164.76   26.67
  169.75   26.25  174.74   25.73  179.73   25.49  184.73   25.51  189.72   25.86
  194.71    26.1  199.71   26.06   204.7   25.85     250  25.874     300 25.6654
     350 25.7139     400 25.8898  419.38   25.08  424.37   25.22  429.37   25.18
  434.36   25.12  439.35   25.19  444.34   25.39  449.34   25.45  454.33   25.28
  459.32   25.17  464.31   25.18  469.31   24.86   474.3    24.7  479.29    24.7
  484.29   25.09  489.28   25.36  494.27   25.39  499.26   25.48  504.26   25.62
  509.25   25.61  514.24   25.37  519.23   25.19  524.23    25.5  529.22   26.12
  534.21   26.11   539.2   25.52   544.2   25.35  549.19   25.56  554.18   25.78
  559.17   25.92  564.17   26.37  569.16    26.7     574   25.11     591   22.04
     614   21.48     637   21.63     654   22.19     677   24.93     709   24.94
     742   25.17     776   24.97     795   25.05     811   22.16     835   21.32
     860   21.01     863   22.84     884   22.06     909   21.89     936   22.21
     961   21.52     981   21.18    1002   22.66    1026   23.65 1028.48   26.16
 1033.47   26.07 1038.47   25.97 1043.46   25.96 1048.45   26.04 1053.44   25.81
 1058.44   25.92 1063.43   26.09 1068.42   25.97 1073.41   25.81 1078.41   25.91
  1083.4      26 1088.39   25.87 1093.39   25.86 1098.38   25.93 1103.37   25.94
 1108.36   26.09 1113.36   26.09 1118.35   26.13 1123.34   25.79 1128.33   26.08
 1133.33   26.15 1138.32   26.27 1143.31   25.98  1148.3   26.03  1153.3   25.89
 1158.29   25.88 1163.28   25.92 1168.27   26.41 1173.27   26.65 1178.26   26.44
 1183.25   26.14 1188.25   26.19 1193.24   26.18 1198.23   26.17 1203.22    26.2
 1208.22   26.23 1213.21   26.29  1218.2   26.43 1223.19   26.52 1228.19   26.57
 1233.18   26.39 1238.17   26.18 1243.16   26.41 1248.16   26.53 1253.15   26.52
 1258.14   26.75 1263.13   27.33 1268.13   27.54 1273.12    27.5 1278.11   27.68
 1283.11   28.22  1288.1   28.56 1293.09   28.66 1298.08    28.7 1303.08   28.65
#Mann= 3 , 0 , 0 
       0      .3       0  569.16     .25       0 1028.48      .3       0
Bank Sta=569.16,1028.48
XS Rating Curve= 0 ,0
Exp/Cntr=0.3,0.1

Type RM Length L Ch R = 1 ,35617.03,2184.5,2339.95,2373.94
XS GIS Cut Line=2
2133041.37347743468594.8043433282134044.90036113468852.559271637
Node Last Edited Time=Apr/24/2015 13:28:49
#Sta/Elev= 105 
       0   27.06    4.98   26.61    9.96      26   14.94   25.55   19.92   25.25
   24.91   25.11   29.89   25.23   34.87   25.35   39.85   25.18   44.83   24.85
   49.81    24.6   54.79   24.48   59.78   24.38   64.76   24.17   69.74   24.23
   74.72   24.59    79.7   24.64   84.68   24.86   89.66   25.34   94.64   25.36
   99.63   25.51  104.61   25.29  109.59   24.82  114.57   24.72  119.55   24.79