Geom Title=Suwannee River
Program Version=3.13
Viewing Rectangle= 0.4116 , 0.515 , 0.955 , 0.4427 

Junct Name=With            
Junct Desc=Withlacoochee confluence with Suwannee, 0 , 0 ,-1 
Junct X Y & Text X Y=0.5003461,0.4673937,0.5003461,0.4673937
Up River,Reach=Suwannee        ,AlatoW          
Up River,Reach=Withlacoochee   ,Main            
Dn River,Reach=Suwannee        ,WtoSF           
Junc L&A=6980,
Junc L&A=11044,

Junct Name=Alapaha         
Junct Desc=Confluence of Alapaha to Suwannee, 0 , 0 ,-1 
Junct X Y & Text X Y=0.5001813,0.5113526,0.5001813,0.5113526
Up River,Reach=Suwannee        ,UpstreamEnd     
Up River,Reach=Alapaha         ,Main            
Dn River,Reach=Suwannee        ,AlatoW          
Junc L&A=2693,
Junc L&A=9554,

River Reach=Alapaha         ,Main            
Reach XY= 2 
        .4126766        .5134443        .5001813        .5113526
Rch Text X Y=0.4363007,0.5139178
Reverse River Text= 0 

Type RM Length L Ch R = 1 ,22.63   ,5500,6072,5400
BEGIN DESCRIPTION:
        NEAR FLA./GA. STATE LINE

END DESCRIPTION:
Node Last Edited Time=May/31/2006 12:40:33
#Sta/Elev= 47 
   10000  103.84   10047   88.44   10092   87.24   10158   83.64   10231   83.24
   10312   83.54   10378   84.34   10454   85.04   10507   82.04   10560   85.54
   10621   85.34   10663   84.54   10701   83.74   10778   83.24   10814   74.24
   10840   62.14   10870   58.74   10890   62.14   10906   74.24   10958   87.94
   11009   87.04   11030   88.44   11052   87.04   11081   89.84   11099   89.74
   11146   92.14   11217   93.14   11264   94.14   11319   95.64   11392   96.54
   11497   96.54   11581   96.84   11667   97.54   11748   97.64   11814   97.94
   11905   98.04   11986   98.54   12070   98.44   12128   97.04   12192   96.44
   12239   96.34   12306   96.24   12367   96.64   12425   97.34   12475   98.74
   12542   99.04   12577   99.64
#Mann= 3 , 0 , 0 
   10000      .3       0   10814     .05       0   10906      .3       0
Bank Sta=10814,10906
Exp/Cntr=0.3,0.1

Type RM Length L Ch R = 1 ,21.48   ,3300,4699,4100
BEGIN DESCRIPTION:
        JUST UPSTREAM OF ALAPAHOOCHEE JUNCTION

END DESCRIPTION:
Node Last Edited Time=May/31/2006 12:40:33
#Sta/Elev= 65 
   10000   99.24   10073   98.54   10129   97.94   10201   97.74   10255   97.14
   10307   96.84   10354   95.64   10419   94.74   10469   93.24   10529   92.04
   10575   90.14   10620   87.94   10669   86.34   10705   81.44   10747   84.44
   10825   85.14   10864   85.54   10946   85.04   11036   85.64   11117   86.84
   11178   83.74   11236   82.84   11289   83.64   11356   83.14   11383   85.74
   11479   85.74   11530   87.74   11551   86.94   11576   87.64   11647   87.54
   11688   68.74   11700   62.14   11750   58.74   11775   62.14   11814   68.74
   11838   85.94   11869   85.24   11908   84.84   11951   85.34   11987   85.64
   12025   84.34   12072   83.94   12141   83.74   12185   82.64   12264   82.44
   12349   82.14   12423   82.04   12460   85.04   12493   84.84   12543   84.74
   12622   81.74   12788   81.14   12827   82.94   12891   88.14   12924   88.14
   12976   87.74   13044   88.64   13123   92.64   13160   93.74   13198   95.64
   13240   97.14   13276   98.04   13331   98.54   13381   98.54   13470   99.24
#Mann= 3 , 0 , 0 
   10000      .3       0   11688     .05       0   11814      .3       0
Bank Sta=11688,11814
Exp/Cntr=0.3,0.1

Type RM Length L Ch R = 1 ,20.59   ,375,397,375
BEGIN DESCRIPTION:
        JUST DOWNSTREAM OF ALAPAHOOCHEE JUNCTION

END DESCRIPTION:
Node Last Edited Time=May/31/2006 12:40:33
#Sta/Elev= 31 
    9000   93.24   10050   87.04   10089   84.94   10128   85.24   10224   85.54
   10313   84.84   10402   82.84   10459   79.34   10499   79.34   10544   83.04
   10581   84.54   10629   81.54   10670   82.44   10718   77.34   10782   80.04
   10824   75.64   10852   77.44   10880   81.04   10894   80.54   10927   87.34
   10963   82.84   10993   69.64   11025   62.14   11050   58.74   11075   62.14
   11106   69.64   11187   71.04   11211   74.84   11250   79.74   11291   92.54
   11317   99.24
#Mann= 3 , 0 , 0 
    9000      .3       0   10993     .05       0   11106      .3       0
Bank Sta=10993,11106
Exp/Cntr=0.3,0.1

Type RM Length L Ch R = 1 ,20.52   ,25,25,25
Node Last Edited Time=May/31/2006 12:40:33
#Sta/Elev= 46 
   10000   96.64   10106   96.14   10182   96.34   10265   96.34   10413   96.84
   10480   96.34   10500   90.71   10540   79.74   10540   92.41   10542   92.41
   10542   79.74   10582   81.08   10582   92.41   10584   92.41   10584   81.08
   10624   90.74   10650   96.47   10725   96.44   10764   75.74   10764   93.74
   10766   93.74   10766   75.64   10775   61.54   10824   59.74   10824   93.74
   10826   93.74   10826   59.64   10840   59.14   10885   61.24   10885   93.74
   10887   93.74   10887   61.34   10900   61.54   10965   83.74   10965   93.74
   10973   93.74   10973   83.74   11081   93.74   11129   96.54   11130   96.54
   11244   97.04   11417   96.84   11591   97.04   11719   97.64   11873  101.34
   12027  105.24
#Mann= 3 , 0 , 0 
   10000      .3       0   10725     .05       0   11129      .3       0
#XS Lid=12
   10480   96.34   96.34   10500   97.74   92.44   10540   97.74   92.44
   10582   97.74   92.44   10624   97.74   92.44   10650   96.44   96.44
   10725   96.44   96.44   10764   97.74   93.74   10887   97.74   93.74
   10973   97.74   93.74   11081   97.74   93.74   11129   96.54   96.54
Bank Sta=10725,11129
Exp/Cntr=0.5,0.3

Type RM Length L Ch R = 1 ,20.51   ,80,86,80
BEGIN DESCRIPTION:
        C-150 BRIDGE NEAR JENNINGS

END DESCRIPTION:
Node Last Edited Time=May/31/2006 12:40:33
#Sta/Elev= 46 
   10000   96.64   10106   96.14   10182   96.34   10265   96.34   10413   96.84
   10480   96.34   10500   90.71   10540   79.74   10540   92.41   10542   92.41
   10542   79.74   10582   81.08   10582   92.41   10584   92.41   10584   81.08
   10624   90.74   10650   96.47   10725   96.44   10764   75.74   10764   93.74
   10766   93.74   10766   75.64   10775   61.54   10824   59.74   10824   93.74
   10826   93.74   10826   59.64   10840   59.14   10885   61.24   10885   93.74
   10887   93.74   10887   61.34   10900   61.54   10965   83.74   10965   93.74
   10973   93.74   10973   83.74   11081   93.74   11129   96.54   11130   96.54
   11244   97.04   11417   96.84   11591   97.04   11719   97.64   11873  101.34
   12027  105.24
#Mann= 3 , 0 , 0 
   10000      .3       0   10725     .05       0   11129      .3       0
#XS Lid=12
   10480   96.34   96.34   10500   97.74   92.44   10540   97.74   92.44
   10582   97.74   92.44   10624   97.74   92.44   10650   96.44   96.44
   10725   96.44   96.44   10764   97.74   93.74   10887   97.74   93.74
   10973   97.74   93.74   11081   97.74   93.74   11129   96.54   96.54
Bank Sta=10725,11129
Exp/Cntr=0.5,0.3

Type RM Length L Ch R = 1 ,20.5    ,20,20,20
Node Last Edited Time=May/31/2006 12:40:33
#Sta/Elev= 64 
   10000   93.94   10050   93.94   10143   93.94   10305   94.14   10419   94.34
   10450   94.44   10500   89.92   10544   75.65   10544   91.98   10554   91.98
   10554   75.64   10561   75.98   10561   91.98   10562   91.98   10562   75.98
   10582   81.54   10582   92.05   10586   92.05   10586   81.55   10599   89.04
   10599   92.04   10602   92.04   10602   89.04   10615   94.54   10642   94.74
   10756   95.64   10760   90.24   10760   91.24   10761   91.24   10761   90.24
   10773   88.24   10773   91.24   10774   91.24   10774   88.14   10791   76.24
   10791   91.24   10796   91.24   10796   73.24   10800   61.54   10810   61.24
   10812   89.94   10815   89.94   10816   61.24   10871   54.24   10871   89.94
   10877   89.94   10877   54.24   10900   59.14   10929   61.24   10931   89.94
   10934   89.94   10935   61.24   10950   61.54   11005   69.24   11005   89.94
   11010   89.94   11010   69.24   11121   95.64   11123   95.64   11124   95.64
   11247   96.44   11443   97.84   11591   99.44   11743  100.34
#Mann= 3 , 0 , 0 
   10000      .3       0   10756     .05       0   11121      .3       0
#XS Lid=12
   10450   94.44   94.44   10554   94.44   91.94   10582   94.54   92.04
   10602   94.54   92.04   10615   94.54   94.54   10756   95.64   95.64
   10761   94.94   91.24   10796   94.94   91.24   10810   94.94   89.94
   10934   94.94   89.94   11010   94.94   89.94   11121   95.64   95.64
Bank Sta=10756,11121
Exp/Cntr=0.5,0.3

Type RM Length L Ch R = 1 ,20.49   ,100,106,120
BEGIN DESCRIPTION:
        RR BRIDGE NEAR JENNINGS

END DESCRIPTION:
Node Last Edited Time=May/31/2006 12:40:33
#Sta/Elev= 64 
   10000   93.94   10050   93.94   10143   93.94   10305   94.14   10419   94.34
   10450   94.44   10500   89.92   10544   75.65   10544   91.98   10554   91.98
   10554   75.64   10561   75.98   10561   91.98   10562   91.98   10562   75.98
   10582   81.54   10582   92.05   10586   92.05   10586   81.55   10599   89.04
   10599   92.04   10602   92.04   10602   89.04   10615   94.54   10642   94.74
   10756   95.64   10760   90.24   10760   91.24   10761   91.24   10761   90.24
   10773   88.24   10773   91.24   10774   91.24   10774   88.14   10791   76.24
   10791   91.24   10796   91.24   10796   73.24   10800   61.54   10810   61.24
   10812   89.94   10815   89.94   10816   61.24   10871   54.24   10871   89.94
   10877   89.94   10877   54.24   10900   59.14   10929   61.24   10931   89.94
   10934   89.94   10935   61.24   10950   61.54   11005   69.24   11005   89.94
   11010   89.94   11010   69.24   11121   95.64   11123   95.64   11124   95.64
   11247   96.44   11443   97.84   11591   99.44   11743  100.34
#Mann= 3 , 0 , 0 
   10000      .3       0   10756     .05       0   11121      .3       0
#XS Lid=12
   10450   94.44   94.44   10554   94.44   91.94   10582   94.54   92.04
   10602   94.54   92.04   10615   94.54   94.54   10756   95.64   95.64
   10761   94.94   91.24   10796   94.94   91.24   10810   94.94   89.94
   10934   94.94   89.94   11010   94.94   89.94   11121   95.64   95.64
Bank Sta=10756,11121
Exp/Cntr=0.5,0.3

Type RM Length L Ch R = 1 ,20.47   ,250,264,280
Node Last Edited Time=May/31/2006 12:40:33
#Sta/Elev= 27 
    9500   92.24   10048   86.84   10088   85.04   10175   83.14   10251   81.74
   10316   80.74   10366   75.24   10419   82.74   10491   83.84   10582   81.44
   10670   80.24   10728   81.94   10778   84.14   10839   82.74   10878   83.44
   10969   84.04   11019   85.74   11085   86.34   11163   85.24   11190   75.84
   11213   68.94   11225   61.54   11270   59.14   11325   61.54   11356   68.94
   11391   89.24   11800   94.24
#Mann= 3 , 0 , 0 
    9500      .3       0   11190     .05       0   11356      .3       0
Bank Sta=11190,11356
Exp/Cntr=0.3,0.1

Type RM Length L Ch R = 1 ,20.42   ,2300,2587,2400
Node Last Edited Time=May/31/2006 12:40:33
#Sta/Elev= 28 
    9500   92.24   10048   86.84   10088   85.04   10175   83.14   10251   81.74
   10316   80.74   10366   75.24   10419   82.74   10491   83.84   10582   81.44
   10670   80.24   10728   81.94   10778   84.14   10839   82.74   10878   83.44
   10969   84.04   11019   85.74   11085   86.34   11163   85.24   11190   75.84
   11213   68.94   11225   61.54   11270   59.14   11325   61.54   11356   68.94
   11380   77.24   11391   89.24   11800   94.24
#Mann= 3 , 0 , 0 
    9500      .3       0   11190     .05       0   11380      .3       0
Bank Sta=11190,11380
Exp/Cntr=0.3,0.1

Type RM Length L Ch R = 1 ,19.93   ,3300,3326,3100
Node Last Edited Time=May/31/2006 12:40:33
#Sta/Elev= 93 
   10000   97.64   10026   94.64   10049   96.54   10076   96.34   10101   98.14
   10111   96.44   10126   97.74   10195   96.94   10284   95.34   10468   95.34
   10525   96.14   10557   97.34   10631   97.94   10801   97.54   10861   97.54
   11003   96.64   11102   95.24   11183   92.34   11258   89.54   11337   88.14
   11397   86.54   11423   88.84   11476   89.24   11556   87.94   11710   87.24
   11859   87.84   11909   88.74   11947   89.54   11996   89.94   12042   90.54
   12109   89.54   12191   89.54   12254   87.84   12288   80.44   12317   69.14
   12330   61.54   12370   59.14   12410   61.54   12443   69.14   12495   85.84
   12512   87.14   12562   85.64   12617   85.24   12647   83.64   12670   84.84
   12714   87.74   12749   88.14   12791   88.54   12828   87.64   12863   84.44
   12893   83.04   12931   81.44   12975   81.84   13014   82.34   13052   82.94
   13087   82.74   13137   83.14   13188   82.84   13256   82.14   13292   79.34
   13314   79.14   13399   79.34   13443   79.24   13475   80.64   13521   82.44
   13578   84.54   13627   84.24   13679   81.04   13713   77.24   13734   75.74
   13751   70.94   13779   63.84   13806   60.84   13844   61.94   13867   70.94
   13891   74.04   13938   75.94   13976   76.14   14016   80.14   14056   81.44
   14090   84.14   14119   84.74   14152   86.04   14246   85.34   14306   82.24
   14349   81.04   14475   81.44   14520   82.84   14579   84.74   14609   89.34
   14635   91.74   14667   94.04   14711   99.34
#Mann= 3 , 0 , 0 
   10000      .3       0   12288     .05       0   12495      .3       0
Bank Sta=12288,12495
Exp/Cntr=0.3,0.1

Type RM Length L Ch R = 1 ,19.3    ,5500,9504,6500
Node Last Edited Time=May/31/2006 12:40:33
#Sta/Elev= 89 
   10000   99.24   10103   95.94   10215   94.84   10308   92.94   10371   91.64
   10407   90.44   10482   89.74   10567   88.54   10643   86.34   10692   83.94
   10754   82.34   10771   81.34   10824   81.34   10870   82.24   10948   82.24
   11029   81.94   11128   80.34   11233   80.14   11306   81.84   11390   83.14
   11492   84.24   11579   82.24   11651   83.44   11728   84.54   11780   84.84
   11897   83.54   11916   83.64   11956   79.94   11990   79.24   12048   81.04
   12121   81.44   12190   80.94   12228   82.14   12268   81.54   12316   82.14
   12386   82.34   12474   82.64   12571   83.74   12614   83.84   12642   82.64
   12667   83.54   12704   80.94   12705   80.94   12753   79.74   12795   80.14
   12876   80.94   12971   81.04   12993   80.44   13037   78.94   13070   79.54
   13113   80.44   13168   82.94   13188   82.44   13233   82.94   13283   82.64
   13355   83.04   13436   82.44   13484   74.24   13524   71.74   13567   79.84
   13600   82.44   13658   81.74   13704   84.04   13757   85.04   13814   85.74
   13833   84.74   13869   85.44   13935   85.04   14016   83.84   14062   80.34
   14125   74.84   14170   73.84   14220   79.14   14264   80.84   14315   86.34
   14360   82.04   14374   75.24   14399   69.44   14503   69.44   14546   74.14
   14581   69.84   14650   69.54   14675   58.14   14725   54.04   14780   58.14
   14811   69.54   14865   81.84   14925   95.74   14966   99.24
#Mann= 3 , 0 , 0 
   10000      .3       0   14650     .05       0   14811      .3       0
Bank Sta=14650,14811
Exp/Cntr=0.3,0.1

Type RM Length L Ch R = 1 ,17.5    ,4700,5016,4500
Node Last Edited Time=May/31/2006 12:40:33
#Sta/Elev= 40 
   10000   89.24   10079   85.14   10129   80.94   10189   81.74   10244   83.74
   10322   82.54   10390   81.34   10457   80.44   10491   81.34   10572   84.24
   10639   80.44   10698   78.04   10721   67.24   10750   58.14   10775   54.04
   10800   58.14   10813   67.24   10837   81.54   10873   81.54   10932   79.84
   10999   78.14   11069   79.34   11141   79.04   11229   78.44   11330   78.44
   11411   77.44   11489   82.94   11564   86.84   11682   85.44   11773   84.24
   11847   84.84   11925   81.84   12017   84.44   12114   86.34   12220   87.54
   12310   88.14   12400   89.24   12469   87.94   12543   87.54   12653   89.24
#Mann= 3 , 0 , 0 
   10000      .3       0   10698     .05       0   10837      .3       0
Bank Sta=10698,10837
Exp/Cntr=0.3,0.1

Type RM Length L Ch R = 1 ,16.55   ,4900,5438,4500
Node Last Edited Time=May/31/2006 12:40:33
#Sta/Elev= 58 
   10000   89.24   10022   85.04   10061   84.04   10110   84.84   10164   82.74
   10209   81.74   10233   80.14   10303   76.54   10348   76.54   10416   82.84
   10455   84.14   10533   82.34   10595   79.64   10645   82.54   10681   84.34
   10727   84.04   10750   82.24   10781   81.54   10810   76.04   10834   64.64
   10855   56.24   10875   51.54   10900   56.24   10929   64.64   10953   77.14
   10989   83.34   11009   82.94   11028   83.64   11074   83.04   11137   83.24
   11177   75.84   11203   79.04   11263   81.44   11308   82.74   11379   82.44
   11403   81.74   11421   71.94   11489   71.94   11499   78.84   11533   82.24
   11558   84.04   11596   82.94   11636   82.04   11690   79.94   11731   82.34
   11780   83.14   11864   84.14   11939   81.84   11990   80.14   12034   82.84
   12101   82.44   12177   83.14   12238   81.64   12295   74.64   12347   77.74
   12399   84.74   12449   86.94   12511   89.24
#Mann= 3 , 0 , 0 
   10000      .3       0   10810     .05       0   10953      .3       0
Bank Sta=10810,10953
Exp/Cntr=0.3,0.1

Type RM Length L Ch R = 1 ,15.52   ,8600,11880,5000
Node Last Edited Time=May/31/2006 12:40:33
#Sta/Elev= 42 
    7087   99.24    7537   89.24    7987   87.24    8487   81.24    8987   79.24
    9237   79.24    9287   69.24    9312   59.24    9787   59.24    9837   69.24
    9950   74.24   10000   79.24   10016   64.34   10087   64.34   10121   81.94
   10181   81.84   10227   64.44   10408   64.44   10461   73.74   10518   70.74
   10563   70.84   10592   71.74   10662   75.94   10687   68.14   10729   74.64
   10761   76.14   10825   74.64   10869   77.24   10941   76.84   10987   64.64
   11010   56.24   11050   51.54   11100   56.24   11130   64.64   11223   84.14
   11313   83.34   11372   75.94   11412   81.54   11471   82.14   11492   79.74
   11571   85.34   11634   89.24
#Mann= 3 , 0 , 0 
    7087      .3       0   10987     .05       0   11130      .3       0
Bank Sta=10987,11130
Exp/Cntr=0.3,0.1

Type RM Length L Ch R = 1 ,13.27   ,5300,7128,4700
Node Last Edited Time=May/31/2006 12:40:33
#Sta/Elev= 95 
   10000   79.24   10095   79.04   10214   76.54   10278   74.14   10342   63.64
   10383   62.54   10415   69.64   10482   73.84   10590   74.54   10656   74.24
   10712   71.84   10731   71.54   10826   78.34   10904   79.14   10971   78.94
   11113   77.54   11174   78.24   11305   77.64   11359   75.24   11395   74.74
   11507   74.24   11651   77.14   11705   79.04   11755   79.14   11833   76.84
   11868   76.34   11912   78.04   11968   79.14   12034   79.14   12098   78.74
   12153   79.04   12207   78.94   12331   77.44   12403   77.24   12439   78.14
   12488   76.34   12617   73.74   12656   74.04   12773   76.74   12919   77.04
   13011   75.94   13094   76.34   13141   77.14   13194   78.84   13256   79.54
   13369   80.04   13463   80.24   13495   80.34   13520   74.24   13540   79.14
   13582   78.64   13697   68.24   13806   66.24   13846   61.74   13870   56.24
   13900   51.54   13940   56.24   13972   61.74   13998   68.94   14091   73.34
   14240   61.04   14316   58.74   14433   60.44   14559   65.74   14668   67.34
   14778   69.74   14892   70.84   14954   71.74   15012   71.74   15120   68.24
   15225   69.34   15289   68.24   15374   67.64   15438   67.64   15605   65.24
   15661   65.44   15713   62.24   15836   73.24   15883   73.94   15956   70.04
   16026   70.44   16048   71.24   16059   70.74   16110   61.64   16133   61.24
   16155   64.84   16218   69.64   16241   70.44   16316   62.84   16346   64.84
   16392   77.24   16435   78.64   16464   78.44   16524   79.94   16695   89.24
#Mann= 3 , 0 , 0 
   10000      .3       0   13806     .05       0   13998      .3       0
Bank Sta=13806,13998
Exp/Cntr=0.3,0.1

Type RM Length L Ch R = 1 ,11.92   ,3200,3749,3100
Node Last Edited Time=May/31/2006 12:40:33
#Sta/Elev= 98 
    6500   99.24   10000   75.24   10003   74.74   10015   75.64   10034   74.94
   10043   77.94   10076   77.64   10100   77.64   10147   77.24   10169   77.34
   10197   77.14   10227   76.14   10315   76.74   10337   77.44   10353   77.44
   10359   77.04   10369   77.14   10378   76.44   10388   77.04   10573   77.84
   10613   76.14   10630   76.14   10663   74.54   10872   73.54   10949   71.44
   11099   73.64   11259   74.24   11391   69.54   11539   76.74   11550   76.94
   11562   76.34   11645   76.24   11724   75.14   11762   75.24   11935   74.54
   12033   75.14   12067   74.84   12267   71.54   12342   74.14   12431   74.14
   12604   71.74   12854   71.94   12896   71.14   12992   70.84   13285   74.94
   13553   74.64   13785   71.54   13834   66.04   13872   65.94   13892   61.74
   13903   61.94   13915   63.34   13928   63.74   13944   62.24   13985   60.84
   13995   60.74   14027   62.34   14037   62.24   14051   60.94   14080   61.54
   14125   61.64   14147   59.74   14168   62.34   14177   61.44   14194   60.84
   14207   61.44   14222   59.64   14241   59.24   14271   64.74   14323   64.54
   14356   62.34   14421   59.34   14472   59.54   14518   63.74   14540   61.74
   14597   65.94   14651   66.84   14676   66.34   14697   59.74   14725   59.44
   14785   63.34   14810   63.54   14824   62.04   14865   64.44   14890   68.94
   14924   68.94   14945   59.14   14960    51.3   14990    48.9   15020   51.34
   15045   59.14   15059   70.64   15069   70.74   15088   67.44   15109   68.14
   15145   73.94   15224   79.24   15424   99.24
#Mann= 3 , 0 , 0 
    6500      .3       0   14924     .05       0   15059      .3       0
Bank Sta=14924,15059
Exp/Cntr=0.3,0.1

Type RM Length L Ch R = 1 ,11.21   ,426,365,401
Node Last Edited Time=May/31/2006 16:08:34
#Sta/Elev= 52 
    6976   99.24    7076   89.24    7276   79.24    8976   69.24   10476   71.24
   12476   70.24   14476   70.24   14521   69.04   14554   66.44   14582   64.14
   14596   61.54   14610   61.84   14624   66.94   14642   71.14   14660   72.14
   14678   73.24   14701   72.64   14726   72.74   14753   72.24   14774   72.14
   14800   69.54   14825   68.04   14844   67.44   14868   67.54   14889   67.74
   14908   67.74   14917   69.04   14934   68.04   14956   67.64   14985   68.24
   15008   68.54   15037   65.34   15053   62.64   15072   61.94   15102   62.14
   15121   60.34   15135   59.74   15147   58.84   15166    51.3   15196    48.9
   15246   51.34   15275   58.84   15286   60.14   15316   58.54   15367   58.54
   15413   62.84   15477   63.44   15593   67.54   15689   74.74   15758   79.24
   15858   89.24   15958   99.24
#Mann= 3 , 0 , 0 
    6976      .3       0   15147     .05       0   15275      .3       0
Bank Sta=15147,15275
Exp/Cntr=0.3,0.1

Type RM Length L Ch R = 3 ,11.165  ,,,
BEGIN DESCRIPTION:
Bridge #3 Converted to HEC-RAS Bridge Routine 6-31-06 SPC
END DESCRIPTION:
Node Last Edited Time=May/31/2006 12:40:33
Bridge Culvert--1,0,-1,-1, 0 
Deck Dist Width WeirC Skew NumUp NumDn MinLoCord MaxHiCord MaxSubmerge Is_Ogee
239,25,2.6,0, 7, 7, , , 0.95, 0, 0,0,,
   14930   15004   15035   15160   15283   15365   15475
   79.04   80.24   80.74   81.14   81.04   81.04   79.04
   79.04   76.24   76.74   77.14   77.04   77.04   79.04
   14930   15004   15035   15160   15283   15365   15475
   79.04   80.24   80.74   81.14   81.04   81.04   79.04
   79.04   76.24   76.74   77.14   77.04   77.04   79.04
Pier Skew, UpSta & Num, DnSta & Num=  ,15005.5, 2 ,15005.5, 2 , 0 , 0 , 0 ,,
       3       3
    -.76   76.24
       3       3
    -.76   76.24
Pier Skew, UpSta & Num, DnSta & Num=  ,15032.5, 2 ,15032.5, 2 , 0 , 0 , 0 ,,
       5       5
    -.76   76.74
       5       5
    -.76   76.74
Pier Skew, UpSta & Num, DnSta & Num=  ,15157, 2 ,15157, 2 , 0 , 0 , 0 ,,
       6       6
    -.76   77.14
       6       6
    -.76   77.14
Pier Skew, UpSta & Num, DnSta & Num=  ,15280, 2 ,15280, 2 , 0 , 0 , 0 ,,
       6       6
    -.76   77.04
       6       6
    -.76   77.04
Pier Skew, UpSta & Num, DnSta & Num=  ,15357.5, 2 ,15357.5, 2 , 0 , 0 , 0 ,,
      15      15
    -.76   77.04
      15      15
    -.76   77.04
BR Coef=-1 , 0 , 0 ,, 0 ,,,0.8,-1,,1,
WSPro=,,,, 1 ,,,, 0 ,,,, 0 ,,,,-1 ,-1 ,-1 , 0 , 0 , 0 , 0 , 0 
BR U #Sta/Elev= 73 
    7000   99.24 7300.01   89.24    7500   79.24    8000   78.24    9000   77.24
   10000   77.04   10065   77.24   10133   77.24   10206   77.14   10285   77.34
   10386   76.94   10475   77.14   10554   77.04   10647   77.04   10738   77.04
   10833   76.84   10917   76.84   11017   76.84   11135   76.74   11239   76.64
   11379   77.04   11504   76.94   11623   76.74   11788   76.94   11991   76.84
   12074   76.64   12209   76.84   12335   76.64   12497   76.64   12619   76.84
   12786   76.84   12946   76.84   13112   76.64   13273   76.54   13433   76.54
   13603   76.94   13730   76.84   13873   77.04   14007   76.94   14178   76.74
   14361   76.94   14511   76.94   14666   76.94   14806   77.54   14921   78.84
   14930   79.04   14980   71.64   15004   60.64   15007   60.54   15030   55.74
   15035   55.54   15050   51.33   15100   50.73   15125   51.34   15154   51.14
   15160   51.14   15250   51.98   15277   59.74   15283   59.84   15300   59.99
   15350   63.04   15365   63.44   15375   65.96   15443   78.54   15475   79.04
   15659   79.24   15750   80.34   15825   81.74   15914   84.24   16022   87.64
   16132   91.54   16242   95.24   16346   98.74
BR U #Mann= 3 
    7000      .3   14930     .05   15475      .3
BR U Banks=14930,15475
BR D #Sta/Elev= 73 
    7000   99.24 7300.01   89.24    7500   79.24    8000   78.24    9000   77.24
   10000   77.04   10065   77.24   10133   77.24   10206   77.14   10285   77.34
   10386   76.94   10475   77.14   10554   77.04   10647   77.04   10738   77.04
   10833   76.84   10917   76.84   11017   76.84   11135   76.74   11239   76.64
   11379   77.04   11504   76.94   11623   76.74   11788   76.94   11991   76.84
   12074   76.64   12209   76.84   12335   76.64   12497   76.64   12619   76.84
   12786   76.84   12946   76.84   13112   76.64   13273   76.54   13433   76.54
   13603   76.94   13730   76.84   13873   77.04   14007   76.94   14178   76.74
   14361   76.94   14511   76.94   14666   76.94   14806   77.54   14921   78.84
   14930   79.04   14980   71.64   15004   60.64   15007   60.54   15030   55.74
   15035   55.54   15050   51.33   15100   50.73   15125   51.34   15154   51.14
   15160   51.14   15250   51.98   15277   59.74   15283   59.84   15300   59.99
   15350   63.04   15365   63.44   15375   65.96   15443   78.54   15475   79.04
   15659   79.24   15750   80.34   15825   81.74   15914   84.24   16022   87.64
   16132   91.54   16242   95.24   16346   98.74
BR D #Mann= 3 
    7000      .3   14930     .05   15475      .3
BR D Banks=14930,15475
BC Design=,, 0 ,, 0 ,,,,,,
BC HTab HWMax=99.24

Type RM Length L Ch R = 1 ,11.14   ,200,217,200
Node Last Edited Time=May/31/2006 16:08:23
#Sta/Elev= 82 
    6268   99.24    6368   89.24    6468   79.24    6768   77.24    7768   76.24
    8768   75.24    9768   74.24   10768   73.24   11768   72.24   12768   71.24
   13768   69.24   13799   67.94   13814   67.44   13835   67.14   13856   66.84
   13878   66.84   13901   67.64   13918   68.34   13934   67.24   13969   65.84
   14012   61.54   14038   59.44   14057   60.94   14089   62.84   14127   64.34
   14184   65.44   14229   68.44   14260   70.14   14294   69.84   14318   69.24
   14346   70.14   14373   70.24   14405   70.14   14426   68.44   14443   68.24
   14450   66.14   14461   65.94   14477   67.24   14499   68.54   14516   69.44
   14543   70.04   14578   70.24   14598   69.94   14609   69.64   14637   70.04
   14669   69.74   14708   70.84   14743   71.74   14780   72.04   14805   72.34
   14837   71.94   14861   71.24   14891   69.04   14913   66.94   14934   65.24
   14949   64.64   14973   64.24   14998   63.74   15021   63.44   15041   63.44
   15064   62.24   15087   59.74   15115   57.24   15138   51.33   15188   50.73
   15248   51.34   15312   57.24   15313   57.24   15343   59.94   15390   61.34
   15475   63.04   15585   64.14   15661   60.84   15741   62.54   15844   62.14
   15899   60.64   15966   65.84   16034   65.24   16098   69.24   16198   79.24
   16298   89.24   16498   99.24
#Mann= 3 , 0 , 0 
    6268      .3       0   15087     .05       0   15343      .3       0
Bank Sta=15087,15343
Exp/Cntr=0.3,0.1

Type RM Length L Ch R = 1 ,11.1    ,4500,5755,3800
Node Last Edited Time=May/31/2006 12:40:33
#Sta/Elev= 82 
    2500   99.24    2600   89.24    2700   79.24    3000   77.24    4000   76.24
    5000   75.24    6000   74.24    7000   73.24    8000   72.24    9000   71.24
   10000   69.24   10031   67.94   10046   67.44   10067   67.14   10088   66.84
   10110   66.84   10133   67.64   10150   68.34   10166   67.24   10201   65.84
   10244   61.54   10270   59.44   10289   60.94   10321   62.84   10359   64.34
   10416   65.44   10461   68.44   10492   70.14   10526   69.84   10550   69.24
   10578   70.14   10605   70.24   10637   70.14   10658   68.44   10675   68.24
   10682   66.14   10693   65.94   10709   67.24   10731   68.54   10748   69.44
   10775   70.04   10810   70.24   10830   69.94   10841   69.64   10869   70.04
   10901   69.74   10940   70.84   10975   71.74   11012   72.04   11037   72.34
   11069   71.94   11093   71.24   11123   69.04   11145   66.94   11166   65.24
   11181   64.64   11205   64.24   11230   63.74   11253   63.44   11273   63.44
   11296   62.24   11319   59.74   11347   57.24   11370   51.33   11420   50.73
   11480   51.34   11544   57.24   11545   57.24   11575   59.94   11622   61.34